  USGS MODFLOW MODEL BATCH-MODE REPORT

 wellbore.nam                                                                                                                                                                                            
