                                  MODFLOW-2000
      U.S. GEOLOGICAL SURVEY MODULAR FINITE-DIFFERENCE GROUND-WATER FLOW MODEL
                           VERSION 1.19.01 03/25/2010


 This model run produced both GLOBAL and LIST files.  This is the LIST file.

 
 # MODFLOW2000 Basic Package                                                     
 #MODFLOW Data Set Created by Groundwater Vistas                                 
 #
   16 LAYERS         1 ROWS       150 COLUMNS
    1 STRESS PERIOD(S) IN SIMULATION

 BAS6 -- BASIC PACKAGE, VERSION 6, 1/11/2000 INPUT READ FROM UNIT    1
         80 ELEMENTS IN IR ARRAY ARE USED BY BAS

 RCH6 -- RECHARGE PACKAGE, VERSION 6, 1/11/2000 INPUT READ FROM UNIT   18
 # MODFLOW2000 Recharge Package
 No named parameters
 OPTION 3 -- RECHARGE TO HIGHEST ACTIVE NODE IN EACH VERTICAL COLUMN
 CELL-BY-CELL FLOWS WILL BE SAVED ON UNIT   50
        150 ELEMENTS IN RX ARRAY ARE USED BY RCH
        150 ELEMENTS IN IR ARRAY ARE USED BY RCH

        150  ELEMENTS OF RX ARRAY USED OUT OF        150
          0  ELEMENTS OF RZ ARRAY USED OUT OF          1
        230  ELEMENTS OF IR ARRAY USED OUT OF        230
1
 # MODFLOW2000 Basic Package                                                     
 #MODFLOW Data Set Created by Groundwater Vistas                                 



                     BOUNDARY ARRAY FOR LAYER   1
 READING ON UNIT    1 WITH FORMAT: (25I3)              



                     BOUNDARY ARRAY FOR LAYER   2
 READING ON UNIT    1 WITH FORMAT: (25I3)              



                     BOUNDARY ARRAY FOR LAYER   3
 READING ON UNIT    1 WITH FORMAT: (25I3)              



                     BOUNDARY ARRAY FOR LAYER   4
 READING ON UNIT    1 WITH FORMAT: (25I3)              



                     BOUNDARY ARRAY FOR LAYER   5
 READING ON UNIT    1 WITH FORMAT: (25I3)              



                     BOUNDARY ARRAY FOR LAYER   6
 READING ON UNIT    1 WITH FORMAT: (25I3)              



                     BOUNDARY ARRAY FOR LAYER   7
 READING ON UNIT    1 WITH FORMAT: (25I3)              



                     BOUNDARY ARRAY FOR LAYER   8
 READING ON UNIT    1 WITH FORMAT: (25I3)              



                     BOUNDARY ARRAY FOR LAYER   9
 READING ON UNIT    1 WITH FORMAT: (25I3)              



                     BOUNDARY ARRAY FOR LAYER  10
 READING ON UNIT    1 WITH FORMAT: (25I3)              



                     BOUNDARY ARRAY FOR LAYER  11
 READING ON UNIT    1 WITH FORMAT: (25I3)              



                     BOUNDARY ARRAY FOR LAYER  12
 READING ON UNIT    1 WITH FORMAT: (25I3)              



                     BOUNDARY ARRAY FOR LAYER  13
 READING ON UNIT    1 WITH FORMAT: (25I3)              



                     BOUNDARY ARRAY FOR LAYER  14
 READING ON UNIT    1 WITH FORMAT: (25I3)              



                     BOUNDARY ARRAY FOR LAYER  15
 READING ON UNIT    1 WITH FORMAT: (25I3)              



                     BOUNDARY ARRAY FOR LAYER  16
 READING ON UNIT    1 WITH FORMAT: (25I3)              

 AQUIFER HEAD WILL BE SET TO  999.00     AT ALL NO-FLOW NODES (IBOUND=0).



                       INITIAL HEAD FOR LAYER   1
 READING ON UNIT    1 WITH FORMAT: (10e12.4)           



                       INITIAL HEAD FOR LAYER   2
 READING ON UNIT    1 WITH FORMAT: (10e12.4)           



                       INITIAL HEAD FOR LAYER   3
 READING ON UNIT    1 WITH FORMAT: (10e12.4)           



                       INITIAL HEAD FOR LAYER   4
 READING ON UNIT    1 WITH FORMAT: (10e12.4)           



                       INITIAL HEAD FOR LAYER   5
 READING ON UNIT    1 WITH FORMAT: (10e12.4)           



                       INITIAL HEAD FOR LAYER   6
 READING ON UNIT    1 WITH FORMAT: (10e12.4)           



                       INITIAL HEAD FOR LAYER   7
 READING ON UNIT    1 WITH FORMAT: (10e12.4)           



                       INITIAL HEAD FOR LAYER   8
 READING ON UNIT    1 WITH FORMAT: (10e12.4)           



                       INITIAL HEAD FOR LAYER   9
 READING ON UNIT    1 WITH FORMAT: (10e12.4)           



                       INITIAL HEAD FOR LAYER  10
 READING ON UNIT    1 WITH FORMAT: (10e12.4)           



                       INITIAL HEAD FOR LAYER  11
 READING ON UNIT    1 WITH FORMAT: (10e12.4)           



                       INITIAL HEAD FOR LAYER  12
 READING ON UNIT    1 WITH FORMAT: (10e12.4)           



                       INITIAL HEAD FOR LAYER  13
 READING ON UNIT    1 WITH FORMAT: (10e12.4)           



                       INITIAL HEAD FOR LAYER  14
 READING ON UNIT    1 WITH FORMAT: (10e12.4)           



                       INITIAL HEAD FOR LAYER  15
 READING ON UNIT    1 WITH FORMAT: (10e12.4)           



                       INITIAL HEAD FOR LAYER  16
 READING ON UNIT    1 WITH FORMAT: (10e12.4)           

 OUTPUT CONTROL IS SPECIFIED ONLY AT TIME STEPS FOR WHICH OUTPUT IS DESIRED
 HEAD PRINT FORMAT CODE IS   0    DRAWDOWN PRINT FORMAT CODE IS   0
 HEADS WILL BE SAVED ON UNIT   30    DRAWDOWNS WILL BE SAVED ON UNIT   31
1
                            STRESS PERIOD NO.    1, LENGTH =   7305.000    
                            -----------------------------------------------

                              NUMBER OF TIME STEPS =     1

                               MULTIPLIER FOR DELT =     1.200

                            INITIAL TIME STEP SIZE =   7305.000    



                           RECHARGE
 READING ON UNIT   18 WITH FORMAT: (10e12.4)           
 
 SOLVING FOR HEAD 


     3 CALLS TO PCG ROUTINE FOR TIME STEP   1 IN STRESS PERIOD    1
    30 TOTAL ITERATIONS

 MAXIMUM HEAD CHANGE FOR EACH ITERATION (1 INDICATES THE FIRST INNER ITERATION):

    HEAD CHANGE    HEAD CHANGE    HEAD CHANGE    HEAD CHANGE    HEAD CHANGE 
   LAYER,ROW,COL  LAYER,ROW,COL  LAYER,ROW,COL  LAYER,ROW,COL  LAYER,ROW,COL
 ---------------------------------------------------------------------------
  1  -9.767      0  -2.983      0  -1.880      0 -0.9261      0 -0.3843    
   (  7,  1,149)  ( 16,  1,105)  ( 16,  1, 75)  ( 16,  1, 52)  ( 16,  1, 38)
  0 -0.2501      0 -0.1821      0 -0.1316      0 -0.1430      0 -0.1077    
   ( 16,  1, 29)  ( 16,  1, 21)  (  1,  1,149)  (  1,  1,149)  (  1,  1,149)
  0 -0.5324E-01  0 -0.3548E-01  0 -0.1499E-01  0 -0.1182E-01  0 -0.9720E-02
   (  1,  1,149)  (  1,  1,149)  (  3,  1,114)  (  1,  1, 38)  ( 15,  1, 57)
  0 -0.5310E-02  0 -0.2671E-02  0 -0.2565E-02  0  0.1259E-02  0 -0.9435E-03
   (  2,  1, 59)  ( 14,  1, 65)  ( 11,  1, 98)  (  7,  1, 68)  (  5,  1, 52)
  1  0.1642E-01  0  0.9317E-02  0  0.8713E-02  0  0.7728E-02  0  0.5460E-02
   (  1,  1, 53)  (  1,  1, 89)  ( 16,  1, 71)  ( 16,  1, 56)  ( 12,  1, 82)
  0  0.2799E-02  0  0.2223E-02  0  0.1209E-02  0  0.6605E-03  1  0.2604E-03
   ( 16,  1, 36)  ( 16,  1, 28)  ( 16,  1, 21)  ( 16,  1, 16)  (  4,  1,101)

 MAXIMUM RESIDUAL FOR EACH ITERATION (1 INDICATES THE FIRST INNER ITERATION):

    RESIDUAL       RESIDUAL       RESIDUAL       RESIDUAL       RESIDUAL    
   LAYER,ROW,COL  LAYER,ROW,COL  LAYER,ROW,COL  LAYER,ROW,COL  LAYER,ROW,COL
 ---------------------------------------------------------------------------
  1   107.0      0   86.48      0   74.05      0   64.77      0   58.13    
   (  1,  1,149)  (  1,  1,149)  (  1,  1,149)  (  1,  1,149)  (  1,  1,149)
  0   51.28      0   42.10      0   31.30      0   19.68      0   10.76    
   (  1,  1,149)  (  1,  1,149)  (  1,  1,149)  (  1,  1,149)  (  1,  1,149)
  0   6.213      0   3.012      0   1.772      0   1.358      0  0.9016    
   (  1,  1,149)  (  1,  1,149)  (  2,  1,148)  (  2,  1,148)  (  2,  1,148)
  0  0.6229      0  0.4238      0  0.3009      0  0.2377      0  0.1538    
   (  2,  1,148)  (  2,  1,148)  (  2,  1,148)  (  2,  1,148)  (  2,  1,148)
  1  0.8712      0  0.7062      0  0.4797      0  0.2705      0  0.1356    
   (  1,  1,149)  (  1,  1,149)  (  1,  1,149)  (  1,  1,149)  (  1,  1,149)
  0  0.1013      0  0.7822E-01  0  0.5613E-01  0  0.3761E-01  1  0.3457E-01
   (  2,  1,148)  (  2,  1,148)  (  2,  1,148)  (  2,  1,148)  (  2,  1,148)



 OUTPUT CONTROL FOR STRESS PERIOD    1   TIME STEP   1
    SAVE HEAD FOR ALL LAYERS
    SAVE DRAWDOWN FOR ALL LAYERS
    SAVE BUDGET
    PRINT BUDGET
 UBUDSV SAVING "   CONSTANT HEAD" ON UNIT 50 AT TIME STEP  1, STRESS PERIOD    1
 UBUDSV SAVING "FLOW RIGHT FACE " ON UNIT 50 AT TIME STEP  1, STRESS PERIOD    1
 UBUDSV SAVING "FLOW LOWER FACE " ON UNIT 50 AT TIME STEP  1, STRESS PERIOD    1
 UBUDSV SAVING "        RECHARGE" ON UNIT 50 AT TIME STEP  1, STRESS PERIOD    1


 ***Link-MT3DMS Package***
 OPENING LINK-MT3DMS OUTPUT FILE: gv131.ftl                                                                                                                                                                                               
 ON UNIT NUMBER:    13
 FILE TYPE: UNFORMATTED
 HEADER OPTION: EXTENDED
 ***Link-MT3DMS Package***


 SAVING SATURATED THICKNESS AND FLOW TERMS ON UNIT   13 FOR MT3DMS
 BY THE LINK-MT3DMS PACKAGE V6.3 AT TIME STEP    1, STRESS PERIOD    1


 HEAD WILL BE SAVED ON UNIT   30 AT END OF TIME STEP   1, STRESS PERIOD    1

 DRAWDOWN WILL BE SAVED ON UNIT   31 AT END OF TIME STEP   1, STRESS PERIOD    1
1
  VOLUMETRIC BUDGET FOR ENTIRE MODEL AT END OF TIME STEP  1 IN STRESS PERIOD   1
  ------------------------------------------------------------------------------

     CUMULATIVE VOLUMES      L**3       RATES FOR THIS TIME STEP      L**3/T
     ------------------                 ------------------------

           IN:                                      IN:
           ---                                      ---
             STORAGE =           0.0000               STORAGE =           0.0000
       CONSTANT HEAD =      551677.6875         CONSTANT HEAD =          75.5206
            RECHARGE =       25374.3555              RECHARGE =           3.4736

            TOTAL IN =      577052.0625              TOTAL IN =          78.9941

          OUT:                                     OUT:
          ----                                     ----
             STORAGE =           0.0000               STORAGE =           0.0000
       CONSTANT HEAD =      576989.6875         CONSTANT HEAD =          78.9856
            RECHARGE =           0.0000              RECHARGE =           0.0000

           TOTAL OUT =      576989.6875             TOTAL OUT =          78.9856

            IN - OUT =          62.3750              IN - OUT =       8.5373E-03

 PERCENT DISCREPANCY =           0.01     PERCENT DISCREPANCY =           0.01






          TIME SUMMARY AT END OF TIME STEP   1 IN STRESS PERIOD    1
                    SECONDS     MINUTES      HOURS       DAYS        YEARS
                    -----------------------------------------------------------
   TIME STEP LENGTH 6.31152E+08 1.05192E+07 1.75320E+05  7305.0      20.000    
 STRESS PERIOD TIME 6.31152E+08 1.05192E+07 1.75320E+05  7305.0      20.000    
         TOTAL TIME 6.31152E+08 1.05192E+07 1.75320E+05  7305.0      20.000    
1
