                                   MODFLOW 6
                U.S. GEOLOGICAL SURVEY MODULAR HYDROLOGIC MODEL
                            VERSION 6.0.3 08/09/2018

   MODFLOW 6 compiled Aug 09 2018 13:40:32 with IFORT compiler (ver. 18.0.3)

This software has been approved for release by the U.S. Geological 
Survey (USGS). Although the software has been subjected to rigorous 
review, the USGS reserves the right to update the software as needed 
pursuant to further analysis and review. No warranty, expressed or 
implied, is made by the USGS or the U.S. Government as to the 
functionality of the software and related material nor shall the 
fact of release constitute any such warranty. Furthermore, the 
software is released on condition that neither the USGS nor the U.S. 
Government shall be held liable for any damages resulting from its 
authorized or unauthorized use. Also refer to the USGS Water 
Resources Software User Rights Notice for complete use, copyright, 
and distribution information.


System command used to initiate simulation:
mf6.exe

MODFLOW was compiled using uniform precision.
Real Variables
  PRECISION: 15
  KIND: 8
  TINY (smallest non-zero value):    2.225074-308
  HUGE (largest value):    1.797693+308
Integer Variables
  KIND: 4
  HUGE (largest value): 2147483647
  BIT_SIZE: 32
 

 OPENED mfsim.nam
 FILE TYPE:NAM   UNIT 1001   STATUS:OLD                 
 FORMAT:FORMATTED              ACCESS:SEQUENTIAL          
 ACTION:READ                


 READING SIMULATION TIMING

 OPENED ImportedP1_Case1b.tdis
 FILE TYPE:TDIS   UNIT 1002   STATUS:OLD                 
 FORMAT:FORMATTED              ACCESS:SEQUENTIAL          
 ACTION:READ                


 TDIS -- TEMPORAL DISCRETIZATION PACKAGE,
 VERSION 1 : 11/13/2014 - INPUT READ FROM UNIT 1002
 PROCESSING TDIS OPTIONS
    SIMULATION TIME UNIT IS DAYS
 END OF TDIS OPTIONS
 PROCESSING TDIS DIMENSIONS
    1 STRESS PERIOD(S) IN SIMULATION
 END OF TDIS DIMENSIONS
 PROCESSING TDIS PERIODDATA


 STRESS PERIOD     LENGTH       TIME STEPS     MULTIPLIER FOR DELT
 ----------------------------------------------------------------------------
        1         2000.000          1                    1.000
 END OF TDIS PERIODDATA
 END OF SIMULATION TIMING

 READING SIMULATION MODELS
    GWF6 model MODFLOW will be created as model 1
 END OF SIMULATION MODELS

 READING SIMULATION EXCHANGES
 END OF SIMULATION EXCHANGES

 READING SOLUTIONGROUP

 Creating solution: SLN_1           

 OPENED ImportedP1_Case1b.ims
 FILE TYPE:IMS   UNIT 1010   STATUS:OLD                 
 FORMAT:FORMATTED              ACCESS:SEQUENTIAL          
 ACTION:READ                

 END OF SIMULATION SOLUTIONGROUP

 IMS -- ITERATIVE MODEL SOLUTION PACKAGE, VERSION 6, 4/28/2017
         INPUT READ FROM UNIT 1010
 # IMS: Iterative Model Solution file created on 2/19/2019 by ModelMuse version 3.10.0.42.

 PROCESSING IMS OPTIONS
 SIMPLE OPTION:
 DEFAULT SOLVER INPUT VALUES FOR FAST SOLUTIONS

 OPENED ImportedP1_Case1b.Solution.CSV
 FILE TYPE:CSV_OUTPUT   UNIT 1014   STATUS:REPLACE             
 FORMAT:FORMATTED              ACCESS:SEQUENTIAL          
 ACTION:READWRITE           

    CSV OUTPUT WILL BE SAVED TO FILE: ImportedP1_Case1b.Solution.CSV
    OPENED ON UNIT:    1014
 END OF IMS OPTIONS

 PROCESSING IMS NONLINEAR
 END OF IMS NONLINEAR DATA
 OUTER ITERATION CONVERGENCE CRITERION     (HCLOSE) =    0.100000E-01
 MAXIMUM NUMBER OF OUTER ITERATIONS        (MXITER) =       100
 SOLVER PRINTOUT INDEX                     (IPRIMS) =         2
 NONLINEAR ITERATION METHOD            (NONLINMETH) =         0
 LINEAR SOLUTION METHOD                   (LINMETH) =         1
 ***UNDER-RELAXATION WILL NOT BE USED***
 
 ***IMS LINEAR SOLVER WILL BE USED***

 IMSLINEAR -- UNSTRUCTURED LINEAR SOLUTION PACKAGE, VERSION 8, 04/28/2017

 PROCESSING LINEAR DATA
 END OF LINEAR DATA

       SOLUTION BY THE BICONJUGATE-GRADIENT STABILIZED METHOD
 ------------------------------------------------------------------
 MAXIMUM OF    100 CALLS OF SOLUTION ROUTINE
 MAXIMUM OF    100 INTERNAL ITERATIONS PER CALL TO SOLUTION ROUTINE
 LINEAR ACCELERATION METHOD            = BCGS      
 MATRIX PRECONDITIONING TYPE           = INCOMPLETE LU       
 MATRIX SCALING APPROACH               = NO SCALING          
 MATRIX REORDERING APPROACH            = ORIGINAL ORDERING        
 NUMBER OF ORTHOGONALIZATIONS          =        0
 HEAD CHANGE CRITERION FOR CLOSURE     =    0.10000E-03
 RESIDUAL CHANGE CRITERION FOR CLOSURE =    0.10000E+00
 RESIDUAL CONVERGENCE OPTION           =        0
 RESIDUAL CONVERGENCE NORM             = INFINITY NORM   
 RELAXATION FACTOR                     =    0.00000E+00



 
1
                            STRESS PERIOD NO.    1, LENGTH =   2000.000    
                            -----------------------------------------------

                              NUMBER OF TIME STEPS =     1

                               MULTIPLIER FOR DELT =     1.000

                            INITIAL TIME STEP SIZE =   2000.000    


 OUTER ITERATION SUMMARY
 -------------------------------------------------------------------------------------------------------------------------------------------
                       OUTER     INNER BACKTRACK BACKTRACK        INCOMING        OUTGOING         MAXIMUM                    MAXIMUM CHANGE
                   ITERATION ITERATION      FLAG    NUMBER        RESIDUAL        RESIDUAL          CHANGE                    MODEL-(CELLID)
 -------------------------------------------------------------------------------------------------------------------------------------------
 Backtracking              1                   0         0     3.46410         3.46410    
 Linear Solver             1         2                                                       -0.840000                        1_GWF-(1,1,15)
 Under-relaxation          1                                                                 -0.840000                        1_GWF-(1,1,15)
 Backtracking              2                   4         0    5.048769E-15    5.048769E-15
 Linear Solver             2         1                                                         0.00000                       1_GWF-(1,1,100)

 2 CALLS TO NUMERICAL SOLUTION IN TIME STEP 1 STRESS PERIOD 1
 3 TOTAL ITERATIONS

 INNER ITERATION SUMMARY
 --------------------------------------------------------------------------------------------------------------------------------
     TOTAL      OUTER     INNER                    MAXIMUM CHANGE        MAXIMUM                  MAXIMUM RESIDUAL        MAXIMUM
 ITERATION  ITERATION ITERATION                    MODEL-(CELLID)         CHANGE                    MODEL-(CELLID)       RESIDUAL
 --------------------------------------------------------------------------------------------------------------------------------
          1         1         1                   1_GWF-(1,1,100)  0.6000000E-01                    1_GWF-(1,1,46)  0.2220446E-15
          2         1         2                     1_GWF-(1,1,4) -0.1665335E-17                    1_GWF-(1,1,46)  0.2312965E-15
          3         2         1                     1_GWF-(1,1,3) -0.1794501E-27                     1_GWF-(1,1,3)  0.8881784E-15

 INFORMATION ON VARIABLES STORED IN THE MEMORY MANAGER
 
 Number of allocated integer variables:   33390
 Number of allocated real variables:    24050
 Allocated memory in megabytes:    0.325960    
 

 Run end date and time (yyyy/mm/dd hh:mm:ss): 2019/04/01 14:16:00
 Elapsed run time:  0.047 Seconds

 Normal termination of simulation.
