                                  MODFLOW-NWT-SWR1 
      U.S. GEOLOGICAL SURVEY MODULAR FINITE-DIFFERENCE GROUNDWATER-FLOW MODEL
                            VERSION 1.0.9 07/01/2014
                    BASED ON MODFLOW-2005 VERSION 1.11.00 08/30/2013

 LIST FILE: gv1.lst
                         UNIT    7

 OPENING gv1.bas
 FILE TYPE:BAS6   UNIT    1   STATUS:OLD    
 FORMAT:FORMATTED              ACCESS:SEQUENTIAL          

 OPENING gv1.dis
 FILE TYPE:DIS   UNIT   29   STATUS:OLD    
 FORMAT:FORMATTED              ACCESS:SEQUENTIAL          

 OPENING gv1.upw
 FILE TYPE:UPW   UNIT   11   STATUS:OLD    
 FORMAT:FORMATTED              ACCESS:SEQUENTIAL          
#WEL             12 gv1.wel                                                                                                                                                                                                                                                                                 
#RCH             14 gv1.rch                                                                                                                                                                                                                                                                                 

 OPENING gv1.uzf
 FILE TYPE:UZF   UNIT   14   STATUS:OLD    
 FORMAT:FORMATTED              ACCESS:SEQUENTIAL          
#GHB             15 gv1.ghb                                                                                                                                                                                                                                                                                 

 OPENING gv1.chd
 FILE TYPE:CHD   UNIT   15   STATUS:OLD    
 FORMAT:FORMATTED              ACCESS:SEQUENTIAL          

 OPENING gv1.oc
 FILE TYPE:OC   UNIT   22   STATUS:OLD    
 FORMAT:FORMATTED              ACCESS:SEQUENTIAL          

 OPENING gv1.nwt
 FILE TYPE:NWT   UNIT   19   STATUS:OLD    
 FORMAT:FORMATTED              ACCESS:SEQUENTIAL          
#PCG            19 gv1.pcg                                                                                                                                                                                                                                                                                  

 OPENING gv1.cbb
 FILE TYPE:DATA(BINARY)   UNIT   50   STATUS:UNKNOWN
 FORMAT:BINARY                 ACCESS:SEQUENTIAL          

 OPENING gv1.hds
 FILE TYPE:DATA(BINARY)   UNIT   51   STATUS:UNKNOWN
 FORMAT:BINARY                 ACCESS:SEQUENTIAL          

 OPENING gv1.ddn
 FILE TYPE:DATA(BINARY)   UNIT   52   STATUS:UNKNOWN
 FORMAT:BINARY                 ACCESS:SEQUENTIAL          

 OPENING gv1_init.hds
 FILE TYPE:DATA(BINARY)   UNIT   70   STATUS:UNKNOWN
 FORMAT:BINARY                 ACCESS:SEQUENTIAL          

 OPENING gv1.lmt
 FILE TYPE:LMT6   UNIT   33   STATUS:OLD    
 FORMAT:FORMATTED              ACCESS:SEQUENTIAL          

 BAS -- BASIC PACKAGE, VERSION 1.0.7, 1/15/2013 INPUT READ FROM UNIT    1
 
 MODFLOW was compiled using mixed precision
 Precision of REAL variables:           6
 Precision of DOUBLE PRECISION variables:          15

 DISCRETIZATION INPUT DATA READ FROM UNIT   29
 # MODFLOW-NWT Discretization File
 #NLAY NROW NCOL NPER  ITMUNI LENUNI  (ITMUNI = 4: days; LENUNI = 0: Undefined)
   80 LAYERS         1 ROWS       400 COLUMNS
    3 STRESS PERIOD(S) IN SIMULATION
 MODEL TIME UNIT IS DAYS
 MODEL LENGTH UNIT IS UNDEFINED
  Confining bed flag for each layer:
   0   0   0   0   0   0   0   0   0   0   0   0   0   0   0   0   0   0   0   0
   0   0   0   0   0   0   0   0   0   0   0   0   0   0   0   0   0   0   0   0
   0   0   0   0   0   0   0   0   0   0   0   0   0   0   0   0   0   0   0   0
   0   0   0   0   0   0   0   0   0   0   0   0   0   0   0   0   0   0   0   0

                     DELR =   25.0000    

                     DELC =   1.00000    

 TOP ELEVATION OF LAYER 1 =   2000.00    

   MODEL LAYER BOTTOM EL. =   1975.00     FOR LAYER   1

   MODEL LAYER BOTTOM EL. =   1950.00     FOR LAYER   2

   MODEL LAYER BOTTOM EL. =   1925.00     FOR LAYER   3

   MODEL LAYER BOTTOM EL. =   1900.00     FOR LAYER   4

   MODEL LAYER BOTTOM EL. =   1875.00     FOR LAYER   5

   MODEL LAYER BOTTOM EL. =   1850.00     FOR LAYER   6

   MODEL LAYER BOTTOM EL. =   1825.00     FOR LAYER   7

   MODEL LAYER BOTTOM EL. =   1800.00     FOR LAYER   8

   MODEL LAYER BOTTOM EL. =   1775.00     FOR LAYER   9

   MODEL LAYER BOTTOM EL. =   1750.00     FOR LAYER  10

   MODEL LAYER BOTTOM EL. =   1725.00     FOR LAYER  11

   MODEL LAYER BOTTOM EL. =   1700.00     FOR LAYER  12

   MODEL LAYER BOTTOM EL. =   1675.00     FOR LAYER  13

   MODEL LAYER BOTTOM EL. =   1650.00     FOR LAYER  14

   MODEL LAYER BOTTOM EL. =   1625.00     FOR LAYER  15

   MODEL LAYER BOTTOM EL. =   1600.00     FOR LAYER  16

   MODEL LAYER BOTTOM EL. =   1575.00     FOR LAYER  17

   MODEL LAYER BOTTOM EL. =   1550.00     FOR LAYER  18

   MODEL LAYER BOTTOM EL. =   1525.00     FOR LAYER  19

   MODEL LAYER BOTTOM EL. =   1500.00     FOR LAYER  20

   MODEL LAYER BOTTOM EL. =   1475.00     FOR LAYER  21

   MODEL LAYER BOTTOM EL. =   1450.00     FOR LAYER  22

   MODEL LAYER BOTTOM EL. =   1425.00     FOR LAYER  23

   MODEL LAYER BOTTOM EL. =   1400.00     FOR LAYER  24

   MODEL LAYER BOTTOM EL. =   1375.00     FOR LAYER  25

   MODEL LAYER BOTTOM EL. =   1350.00     FOR LAYER  26

   MODEL LAYER BOTTOM EL. =   1325.00     FOR LAYER  27

   MODEL LAYER BOTTOM EL. =   1300.00     FOR LAYER  28

   MODEL LAYER BOTTOM EL. =   1275.00     FOR LAYER  29

   MODEL LAYER BOTTOM EL. =   1250.00     FOR LAYER  30

   MODEL LAYER BOTTOM EL. =   1225.00     FOR LAYER  31

   MODEL LAYER BOTTOM EL. =   1200.00     FOR LAYER  32

   MODEL LAYER BOTTOM EL. =   1175.00     FOR LAYER  33

   MODEL LAYER BOTTOM EL. =   1150.00     FOR LAYER  34

   MODEL LAYER BOTTOM EL. =   1125.00     FOR LAYER  35

   MODEL LAYER BOTTOM EL. =   1100.00     FOR LAYER  36

   MODEL LAYER BOTTOM EL. =   1075.00     FOR LAYER  37

   MODEL LAYER BOTTOM EL. =   1050.00     FOR LAYER  38

   MODEL LAYER BOTTOM EL. =   1025.00     FOR LAYER  39

   MODEL LAYER BOTTOM EL. =   1000.00     FOR LAYER  40

   MODEL LAYER BOTTOM EL. =   975.000     FOR LAYER  41

   MODEL LAYER BOTTOM EL. =   950.000     FOR LAYER  42

   MODEL LAYER BOTTOM EL. =   925.000     FOR LAYER  43

   MODEL LAYER BOTTOM EL. =   900.000     FOR LAYER  44

   MODEL LAYER BOTTOM EL. =   875.000     FOR LAYER  45

   MODEL LAYER BOTTOM EL. =   850.000     FOR LAYER  46

   MODEL LAYER BOTTOM EL. =   825.000     FOR LAYER  47

   MODEL LAYER BOTTOM EL. =   800.000     FOR LAYER  48

   MODEL LAYER BOTTOM EL. =   775.000     FOR LAYER  49

   MODEL LAYER BOTTOM EL. =   750.000     FOR LAYER  50

   MODEL LAYER BOTTOM EL. =   725.000     FOR LAYER  51

   MODEL LAYER BOTTOM EL. =   700.000     FOR LAYER  52

   MODEL LAYER BOTTOM EL. =   675.000     FOR LAYER  53

   MODEL LAYER BOTTOM EL. =   650.000     FOR LAYER  54

   MODEL LAYER BOTTOM EL. =   625.000     FOR LAYER  55

   MODEL LAYER BOTTOM EL. =   600.000     FOR LAYER  56

   MODEL LAYER BOTTOM EL. =   575.000     FOR LAYER  57

   MODEL LAYER BOTTOM EL. =   550.000     FOR LAYER  58

   MODEL LAYER BOTTOM EL. =   525.000     FOR LAYER  59

   MODEL LAYER BOTTOM EL. =   500.000     FOR LAYER  60

   MODEL LAYER BOTTOM EL. =   475.000     FOR LAYER  61

   MODEL LAYER BOTTOM EL. =   450.000     FOR LAYER  62

   MODEL LAYER BOTTOM EL. =   425.000     FOR LAYER  63

   MODEL LAYER BOTTOM EL. =   400.000     FOR LAYER  64

   MODEL LAYER BOTTOM EL. =   375.000     FOR LAYER  65

   MODEL LAYER BOTTOM EL. =   350.000     FOR LAYER  66

   MODEL LAYER BOTTOM EL. =   325.000     FOR LAYER  67

   MODEL LAYER BOTTOM EL. =   300.000     FOR LAYER  68

   MODEL LAYER BOTTOM EL. =   275.000     FOR LAYER  69

   MODEL LAYER BOTTOM EL. =   250.000     FOR LAYER  70

   MODEL LAYER BOTTOM EL. =   225.000     FOR LAYER  71

   MODEL LAYER BOTTOM EL. =   200.000     FOR LAYER  72

   MODEL LAYER BOTTOM EL. =   175.000     FOR LAYER  73

   MODEL LAYER BOTTOM EL. =   150.000     FOR LAYER  74

   MODEL LAYER BOTTOM EL. =   125.000     FOR LAYER  75

   MODEL LAYER BOTTOM EL. =   100.000     FOR LAYER  76

   MODEL LAYER BOTTOM EL. =   75.0000     FOR LAYER  77

   MODEL LAYER BOTTOM EL. =   50.0000     FOR LAYER  78

   MODEL LAYER BOTTOM EL. =   25.0000     FOR LAYER  79

   MODEL LAYER BOTTOM EL. =   0.00000     FOR LAYER  80


 STRESS PERIOD     LENGTH       TIME STEPS     MULTIPLIER FOR DELT    SS FLAG
 ----------------------------------------------------------------------------
        1         10000.00          1                    1.000         SS
        2         730.0000          1                    1.000         TR
        3         9270.000          1                    1.000         TR

 COMBINED STEADY-STATE AND TRANSIENT SIMULATION



 
 # MODFLOW2005 Basic Package                                                     
 #MODFLOW Data Set Created by Groundwater Vistas                                 
 #

           BOUNDARY ARRAY =              1 FOR LAYER   1

           BOUNDARY ARRAY =              1 FOR LAYER   2

           BOUNDARY ARRAY =              1 FOR LAYER   3

           BOUNDARY ARRAY =              1 FOR LAYER   4

           BOUNDARY ARRAY =              1 FOR LAYER   5

           BOUNDARY ARRAY =              1 FOR LAYER   6

           BOUNDARY ARRAY =              1 FOR LAYER   7

           BOUNDARY ARRAY =              1 FOR LAYER   8

           BOUNDARY ARRAY =              1 FOR LAYER   9

           BOUNDARY ARRAY =              1 FOR LAYER  10

           BOUNDARY ARRAY =              1 FOR LAYER  11

           BOUNDARY ARRAY =              1 FOR LAYER  12

           BOUNDARY ARRAY =              1 FOR LAYER  13

           BOUNDARY ARRAY =              1 FOR LAYER  14

           BOUNDARY ARRAY =              1 FOR LAYER  15

           BOUNDARY ARRAY =              1 FOR LAYER  16

           BOUNDARY ARRAY =              1 FOR LAYER  17

           BOUNDARY ARRAY =              1 FOR LAYER  18

           BOUNDARY ARRAY =              1 FOR LAYER  19

           BOUNDARY ARRAY =              1 FOR LAYER  20

           BOUNDARY ARRAY =              1 FOR LAYER  21

           BOUNDARY ARRAY =              1 FOR LAYER  22

           BOUNDARY ARRAY =              1 FOR LAYER  23

           BOUNDARY ARRAY =              1 FOR LAYER  24

           BOUNDARY ARRAY =              1 FOR LAYER  25

           BOUNDARY ARRAY =              1 FOR LAYER  26

           BOUNDARY ARRAY =              1 FOR LAYER  27

           BOUNDARY ARRAY =              1 FOR LAYER  28

           BOUNDARY ARRAY =              1 FOR LAYER  29

           BOUNDARY ARRAY =              1 FOR LAYER  30

           BOUNDARY ARRAY =              1 FOR LAYER  31

           BOUNDARY ARRAY =              1 FOR LAYER  32

           BOUNDARY ARRAY =              1 FOR LAYER  33

           BOUNDARY ARRAY =              1 FOR LAYER  34

           BOUNDARY ARRAY =              1 FOR LAYER  35

           BOUNDARY ARRAY =              1 FOR LAYER  36

           BOUNDARY ARRAY =              1 FOR LAYER  37

           BOUNDARY ARRAY =              1 FOR LAYER  38

           BOUNDARY ARRAY =              1 FOR LAYER  39

           BOUNDARY ARRAY =              1 FOR LAYER  40

           BOUNDARY ARRAY =              1 FOR LAYER  41

           BOUNDARY ARRAY =              1 FOR LAYER  42

           BOUNDARY ARRAY =              1 FOR LAYER  43

           BOUNDARY ARRAY =              1 FOR LAYER  44

           BOUNDARY ARRAY =              1 FOR LAYER  45

           BOUNDARY ARRAY =              1 FOR LAYER  46

           BOUNDARY ARRAY =              1 FOR LAYER  47

           BOUNDARY ARRAY =              1 FOR LAYER  48

           BOUNDARY ARRAY =              1 FOR LAYER  49

           BOUNDARY ARRAY =              1 FOR LAYER  50

           BOUNDARY ARRAY =              1 FOR LAYER  51

           BOUNDARY ARRAY =              1 FOR LAYER  52

           BOUNDARY ARRAY =              1 FOR LAYER  53

           BOUNDARY ARRAY =              1 FOR LAYER  54

           BOUNDARY ARRAY =              1 FOR LAYER  55

           BOUNDARY ARRAY =              1 FOR LAYER  56

           BOUNDARY ARRAY =              1 FOR LAYER  57

           BOUNDARY ARRAY =              1 FOR LAYER  58

           BOUNDARY ARRAY =              1 FOR LAYER  59

           BOUNDARY ARRAY =              1 FOR LAYER  60

           BOUNDARY ARRAY =              1 FOR LAYER  61

           BOUNDARY ARRAY =              1 FOR LAYER  62

           BOUNDARY ARRAY =              1 FOR LAYER  63

           BOUNDARY ARRAY =              1 FOR LAYER  64

           BOUNDARY ARRAY =              1 FOR LAYER  65

           BOUNDARY ARRAY =              1 FOR LAYER  66

           BOUNDARY ARRAY =              1 FOR LAYER  67

           BOUNDARY ARRAY =              1 FOR LAYER  68

           BOUNDARY ARRAY =              1 FOR LAYER  69

           BOUNDARY ARRAY =              1 FOR LAYER  70

           BOUNDARY ARRAY =              1 FOR LAYER  71

           BOUNDARY ARRAY =              1 FOR LAYER  72

           BOUNDARY ARRAY =              1 FOR LAYER  73

           BOUNDARY ARRAY =              1 FOR LAYER  74

           BOUNDARY ARRAY =              1 FOR LAYER  75

           BOUNDARY ARRAY =              1 FOR LAYER  76

           BOUNDARY ARRAY =              1 FOR LAYER  77

           BOUNDARY ARRAY =              1 FOR LAYER  78

           BOUNDARY ARRAY =              1 FOR LAYER  79

           BOUNDARY ARRAY =              1 FOR LAYER  80

 AQUIFER HEAD WILL BE SET TO   999.00     AT ALL NO-FLOW NODES (IBOUND=0).

             INITIAL HEAD =   1975.00     FOR LAYER   1

             INITIAL HEAD =   1950.00     FOR LAYER   2

             INITIAL HEAD =   1925.00     FOR LAYER   3

             INITIAL HEAD =   1900.00     FOR LAYER   4

             INITIAL HEAD =   1875.00     FOR LAYER   5

             INITIAL HEAD =   1850.00     FOR LAYER   6

             INITIAL HEAD =   1825.00     FOR LAYER   7

             INITIAL HEAD =   1800.00     FOR LAYER   8

             INITIAL HEAD =   1775.00     FOR LAYER   9

             INITIAL HEAD =   1750.00     FOR LAYER  10

             INITIAL HEAD =   1725.00     FOR LAYER  11

             INITIAL HEAD =   1700.00     FOR LAYER  12

             INITIAL HEAD =   1675.00     FOR LAYER  13

             INITIAL HEAD =   1650.00     FOR LAYER  14

             INITIAL HEAD =   1625.00     FOR LAYER  15

             INITIAL HEAD =   1600.00     FOR LAYER  16

             INITIAL HEAD =   1575.00     FOR LAYER  17

             INITIAL HEAD =   1550.00     FOR LAYER  18

             INITIAL HEAD =   1525.00     FOR LAYER  19

             INITIAL HEAD =   1500.00     FOR LAYER  20

             INITIAL HEAD =   1475.00     FOR LAYER  21

             INITIAL HEAD =   1450.00     FOR LAYER  22

             INITIAL HEAD =   1425.00     FOR LAYER  23

             INITIAL HEAD =   1400.00     FOR LAYER  24

             INITIAL HEAD =   1375.00     FOR LAYER  25

             INITIAL HEAD =   1350.00     FOR LAYER  26

             INITIAL HEAD =   1325.00     FOR LAYER  27

             INITIAL HEAD =   1300.00     FOR LAYER  28

             INITIAL HEAD =   1275.00     FOR LAYER  29

             INITIAL HEAD =   1250.00     FOR LAYER  30

             INITIAL HEAD =   1225.00     FOR LAYER  31

             INITIAL HEAD =   1200.00     FOR LAYER  32

             INITIAL HEAD =   1175.00     FOR LAYER  33

             INITIAL HEAD =   1150.00     FOR LAYER  34

             INITIAL HEAD =   1125.00     FOR LAYER  35

             INITIAL HEAD =   1100.00     FOR LAYER  36

             INITIAL HEAD =   1075.00     FOR LAYER  37

             INITIAL HEAD =   1050.00     FOR LAYER  38

             INITIAL HEAD =   1025.00     FOR LAYER  39

             INITIAL HEAD =   1000.00     FOR LAYER  40

             INITIAL HEAD =   975.000     FOR LAYER  41

             INITIAL HEAD =   950.000     FOR LAYER  42

             INITIAL HEAD =   925.000     FOR LAYER  43

             INITIAL HEAD =   900.000     FOR LAYER  44

             INITIAL HEAD =   875.000     FOR LAYER  45

             INITIAL HEAD =   850.000     FOR LAYER  46

             INITIAL HEAD =   825.000     FOR LAYER  47

             INITIAL HEAD =   800.000     FOR LAYER  48

             INITIAL HEAD =   775.000     FOR LAYER  49

             INITIAL HEAD =   750.000     FOR LAYER  50

             INITIAL HEAD =   725.000     FOR LAYER  51

             INITIAL HEAD =   700.000     FOR LAYER  52

             INITIAL HEAD =   675.000     FOR LAYER  53

             INITIAL HEAD =   650.000     FOR LAYER  54

             INITIAL HEAD =   625.000     FOR LAYER  55

             INITIAL HEAD =   600.000     FOR LAYER  56

             INITIAL HEAD =   600.000     FOR LAYER  57

             INITIAL HEAD =   600.000     FOR LAYER  58

             INITIAL HEAD =   600.000     FOR LAYER  59

             INITIAL HEAD =   600.000     FOR LAYER  60

             INITIAL HEAD =   600.000     FOR LAYER  61

             INITIAL HEAD =   600.000     FOR LAYER  62

             INITIAL HEAD =   600.000     FOR LAYER  63

             INITIAL HEAD =   600.000     FOR LAYER  64

             INITIAL HEAD =   600.000     FOR LAYER  65

             INITIAL HEAD =   600.000     FOR LAYER  66

             INITIAL HEAD =   600.000     FOR LAYER  67

             INITIAL HEAD =   600.000     FOR LAYER  68

             INITIAL HEAD =   600.000     FOR LAYER  69

             INITIAL HEAD =   600.000     FOR LAYER  70

             INITIAL HEAD =   600.000     FOR LAYER  71

             INITIAL HEAD =   600.000     FOR LAYER  72

             INITIAL HEAD =   600.000     FOR LAYER  73

             INITIAL HEAD =   600.000     FOR LAYER  74

             INITIAL HEAD =   600.000     FOR LAYER  75

             INITIAL HEAD =   600.000     FOR LAYER  76

             INITIAL HEAD =   600.000     FOR LAYER  77

             INITIAL HEAD =   600.000     FOR LAYER  78

             INITIAL HEAD =   600.000     FOR LAYER  79

             INITIAL HEAD =   600.000     FOR LAYER  80
 # Output control package file for MODFLOW, generated by Flopy. Output control by words option

 OUTPUT CONTROL IS SPECIFIED ONLY AT TIME STEPS FOR WHICH OUTPUT IS DESIRED
 HEAD PRINT FORMAT CODE IS   0    DRAWDOWN PRINT FORMAT CODE IS   0
 HEADS WILL BE SAVED ON UNIT   51    DRAWDOWNS WILL BE SAVED ON UNIT   52
 # MODFLOW2005 NWT Input File
 #HEADTOL  FLUXTOL MAXITEROUT THICKFACT   LINMETH   IPRNWT    IBOTAV   OPTIONS  [DBDTHETA]  [DBDKAPPA] [DBDGAMMA] [MOMFACT] [BACKFLAG] [MAXBACKITER] [BACKTOL] [BACKREDUCE]
 # [IACL] [NORDER]    [LEVEL]   [NORTH] [IREDSYS][RRCTOLS][IDROPTOL]   [EPSRN] [HCLOSEXMD] [MXITERXMD]

 NWT1 -- Newton Solver, VERSION 1.0.9, 07/01/2014
         INPUT READ FROM UNIT 19

 SPECIFIED OPTION:
 SOLVER INPUT VALUES ARE SPECIFIED BY USER
 ***XMD linear solver will be used***
 
   CONVERGENCE CRITERION OF   0.100000E-04 FOR HEAD SOLUTION
   AND A TOLERANCE OF   0.100000E-02 FOR FLOW SOLUTION AND 
   A MAXIMUM OF  3000 OUTER ITERATIONS. 


   D-B-D REDUCTION FACTOR OF    0.700000E+00 AND 
   A D-B-D INCREASE FACTOR OF    0.100000E-03 AND 
   A D-B-D RELAXATION OF    0.000000E+00 AND 
   A MOMENTUM FACTOR OF    0.100000E+00 .


 ***BACKTRACKING IS INACTIVE***
 XMD -- LINEAR SOLUTION BY XMD PACKAGE VERSION 1.30
     BY MOTOMU IBARAKI, OHIO STATE UNIVERSITY, COLOMBUS, OH
                 INPUT READ FROM UNIT 19
 ACCELERATION METHOD                    (IACL) =         2
 NODE ORDERING FLAG                   (NORDER) =         1
 LEVEL OF FILL                         (LEVEL) =         3
 MAXIMUM NUMBER OF ORTHOGONALIZATIONS  (NORTH) =         2
 INDEX FOR USING REDUCED SYSTEM      (IREDSYS) =         1
 RESID. REDUCTION CONVERGE CRITERION  (RRCTOL) =  0.000000E+00
 INDEX FOR USING DROP TOLERANCE     (IDROPTOL) =         1
 DROP TOLERANCE VALUE                  (EPSRN) =  0.500000E-02
 CONVERGENCE CRITERIA OF           (HCLOSEXMD) =  0.100000E-02
 MAX. NUMBER OF LINEAR ITERATIONS  (MXITERXMD) =       200


 UPW1 -- UPSTREAM WEIGHTING FLOW PACKAGE, VERSION 1.0.6, 12/05/2012
         INPUT READ FROM UNIT 11

 # MODFLOW2000 Layer Property Flow (LPF) Package
 CELL-BY-CELL FLOWS WILL BE SAVED ON UNIT   50
 No named parameters

   LAYER FLAGS:
 LAYER       LAYTYP          LAYAVG    CHANI           LAYVKA           LAYWET
 ---------------------------------------------------------------------------
    1             1             0     1.000E+00             0             0
    2             3             0     1.000E+00             0             0
    3             3             0     1.000E+00             0             0
    4             3             0     1.000E+00             0             0
    5             3             0     1.000E+00             0             0
    6             3             0     1.000E+00             0             0
    7             3             0     1.000E+00             0             0
    8             3             0     1.000E+00             0             0
    9             3             0     1.000E+00             0             0
   10             3             0     1.000E+00             0             0
   11             3             0     1.000E+00             0             0
   12             3             0     1.000E+00             0             0
   13             3             0     1.000E+00             0             0
   14             3             0     1.000E+00             0             0
   15             3             0     1.000E+00             0             0
   16             3             0     1.000E+00             0             0
   17             3             0     1.000E+00             0             0
   18             3             0     1.000E+00             0             0
   19             3             0     1.000E+00             0             0
   20             3             0     1.000E+00             0             0
   21             3             0     1.000E+00             0             0
   22             3             0     1.000E+00             0             0
   23             3             0     1.000E+00             0             0
   24             3             0     1.000E+00             0             0
   25             3             0     1.000E+00             0             0
   26             3             0     1.000E+00             0             0
   27             3             0     1.000E+00             0             0
   28             3             0     1.000E+00             0             0
   29             3             0     1.000E+00             0             0
   30             3             0     1.000E+00             0             0
   31             3             0     1.000E+00             0             0
   32             3             0     1.000E+00             0             0
   33             3             0     1.000E+00             0             0
   34             3             0     1.000E+00             0             0
   35             3             0     1.000E+00             0             0
   36             3             0     1.000E+00             0             0
   37             3             0     1.000E+00             0             0
   38             3             0     1.000E+00             0             0
   39             3             0     1.000E+00             0             0
   40             3             0     1.000E+00             0             0
   41             3             0     1.000E+00             0             0
   42             3             0     1.000E+00             0             0
   43             3             0     1.000E+00             0             0
   44             3             0     1.000E+00             0             0
   45             3             0     1.000E+00             0             0
   46             3             0     1.000E+00             0             0
   47             3             0     1.000E+00             0             0
   48             3             0     1.000E+00             0             0
   49             3             0     1.000E+00             0             0
   50             3             0     1.000E+00             0             0
   51             3             0     1.000E+00             0             0
   52             3             0     1.000E+00             0             0
   53             3             0     1.000E+00             0             0
   54             3             0     1.000E+00             0             0
   55             3             0     1.000E+00             0             0
   56             3             0     1.000E+00             0             0
   57             3             0     1.000E+00             0             0
   58             3             0     1.000E+00             0             0
   59             3             0     1.000E+00             0             0
   60             3             0     1.000E+00             0             0
   61             3             0     1.000E+00             0             0
   62             3             0     1.000E+00             0             0
   63             3             0     1.000E+00             0             0
   64             3             0     1.000E+00             0             0
   65             3             0     1.000E+00             0             0
   66             3             0     1.000E+00             0             0
   67             3             0     1.000E+00             0             0
   68             3             0     1.000E+00             0             0
   69             3             0     1.000E+00             0             0
   70             3             0     1.000E+00             0             0
   71             3             0     1.000E+00             0             0
   72             3             0     1.000E+00             0             0
   73             3             0     1.000E+00             0             0
   74             3             0     1.000E+00             0             0
   75             3             0     1.000E+00             0             0
   76             3             0     1.000E+00             0             0
   77             3             0     1.000E+00             0             0
   78             3             0     1.000E+00             0             0
   79             3             0     1.000E+00             0             0
   80             3             0     1.000E+00             0             0

   INTERPRETATION OF LAYER FLAGS:
                        INTERBLOCK     HORIZONTAL    DATA IN
         LAYER TYPE   TRANSMISSIVITY   ANISOTROPY   ARRAY VKA   WETTABILITY
 LAYER   (LAYTYP)        (LAYAVG)      (CHANI)     (LAYVKA)       (LAYWET)
 ---------------------------------------------------------------------------
    1   CONVERTIBLE      HARMONIC     1.000E+00    VERTICAL K  NON-WETTABLE
    2   CONVERTIBLE      HARMONIC     1.000E+00    VERTICAL K  NON-WETTABLE
    3   CONVERTIBLE      HARMONIC     1.000E+00    VERTICAL K  NON-WETTABLE
    4   CONVERTIBLE      HARMONIC     1.000E+00    VERTICAL K  NON-WETTABLE
    5   CONVERTIBLE      HARMONIC     1.000E+00    VERTICAL K  NON-WETTABLE
    6   CONVERTIBLE      HARMONIC     1.000E+00    VERTICAL K  NON-WETTABLE
    7   CONVERTIBLE      HARMONIC     1.000E+00    VERTICAL K  NON-WETTABLE
    8   CONVERTIBLE      HARMONIC     1.000E+00    VERTICAL K  NON-WETTABLE
    9   CONVERTIBLE      HARMONIC     1.000E+00    VERTICAL K  NON-WETTABLE
   10   CONVERTIBLE      HARMONIC     1.000E+00    VERTICAL K  NON-WETTABLE
   11   CONVERTIBLE      HARMONIC     1.000E+00    VERTICAL K  NON-WETTABLE
   12   CONVERTIBLE      HARMONIC     1.000E+00    VERTICAL K  NON-WETTABLE
   13   CONVERTIBLE      HARMONIC     1.000E+00    VERTICAL K  NON-WETTABLE
   14   CONVERTIBLE      HARMONIC     1.000E+00    VERTICAL K  NON-WETTABLE
   15   CONVERTIBLE      HARMONIC     1.000E+00    VERTICAL K  NON-WETTABLE
   16   CONVERTIBLE      HARMONIC     1.000E+00    VERTICAL K  NON-WETTABLE
   17   CONVERTIBLE      HARMONIC     1.000E+00    VERTICAL K  NON-WETTABLE
   18   CONVERTIBLE      HARMONIC     1.000E+00    VERTICAL K  NON-WETTABLE
   19   CONVERTIBLE      HARMONIC     1.000E+00    VERTICAL K  NON-WETTABLE
   20   CONVERTIBLE      HARMONIC     1.000E+00    VERTICAL K  NON-WETTABLE
   21   CONVERTIBLE      HARMONIC     1.000E+00    VERTICAL K  NON-WETTABLE
   22   CONVERTIBLE      HARMONIC     1.000E+00    VERTICAL K  NON-WETTABLE
   23   CONVERTIBLE      HARMONIC     1.000E+00    VERTICAL K  NON-WETTABLE
   24   CONVERTIBLE      HARMONIC     1.000E+00    VERTICAL K  NON-WETTABLE
   25   CONVERTIBLE      HARMONIC     1.000E+00    VERTICAL K  NON-WETTABLE
   26   CONVERTIBLE      HARMONIC     1.000E+00    VERTICAL K  NON-WETTABLE
   27   CONVERTIBLE      HARMONIC     1.000E+00    VERTICAL K  NON-WETTABLE
   28   CONVERTIBLE      HARMONIC     1.000E+00    VERTICAL K  NON-WETTABLE
   29   CONVERTIBLE      HARMONIC     1.000E+00    VERTICAL K  NON-WETTABLE
   30   CONVERTIBLE      HARMONIC     1.000E+00    VERTICAL K  NON-WETTABLE
   31   CONVERTIBLE      HARMONIC     1.000E+00    VERTICAL K  NON-WETTABLE
   32   CONVERTIBLE      HARMONIC     1.000E+00    VERTICAL K  NON-WETTABLE
   33   CONVERTIBLE      HARMONIC     1.000E+00    VERTICAL K  NON-WETTABLE
   34   CONVERTIBLE      HARMONIC     1.000E+00    VERTICAL K  NON-WETTABLE
   35   CONVERTIBLE      HARMONIC     1.000E+00    VERTICAL K  NON-WETTABLE
   36   CONVERTIBLE      HARMONIC     1.000E+00    VERTICAL K  NON-WETTABLE
   37   CONVERTIBLE      HARMONIC     1.000E+00    VERTICAL K  NON-WETTABLE
   38   CONVERTIBLE      HARMONIC     1.000E+00    VERTICAL K  NON-WETTABLE
   39   CONVERTIBLE      HARMONIC     1.000E+00    VERTICAL K  NON-WETTABLE
   40   CONVERTIBLE      HARMONIC     1.000E+00    VERTICAL K  NON-WETTABLE
   41   CONVERTIBLE      HARMONIC     1.000E+00    VERTICAL K  NON-WETTABLE
   42   CONVERTIBLE      HARMONIC     1.000E+00    VERTICAL K  NON-WETTABLE
   43   CONVERTIBLE      HARMONIC     1.000E+00    VERTICAL K  NON-WETTABLE
   44   CONVERTIBLE      HARMONIC     1.000E+00    VERTICAL K  NON-WETTABLE
   45   CONVERTIBLE      HARMONIC     1.000E+00    VERTICAL K  NON-WETTABLE
   46   CONVERTIBLE      HARMONIC     1.000E+00    VERTICAL K  NON-WETTABLE
   47   CONVERTIBLE      HARMONIC     1.000E+00    VERTICAL K  NON-WETTABLE
   48   CONVERTIBLE      HARMONIC     1.000E+00    VERTICAL K  NON-WETTABLE
   49   CONVERTIBLE      HARMONIC     1.000E+00    VERTICAL K  NON-WETTABLE
   50   CONVERTIBLE      HARMONIC     1.000E+00    VERTICAL K  NON-WETTABLE
   51   CONVERTIBLE      HARMONIC     1.000E+00    VERTICAL K  NON-WETTABLE
   52   CONVERTIBLE      HARMONIC     1.000E+00    VERTICAL K  NON-WETTABLE
   53   CONVERTIBLE      HARMONIC     1.000E+00    VERTICAL K  NON-WETTABLE
   54   CONVERTIBLE      HARMONIC     1.000E+00    VERTICAL K  NON-WETTABLE
   55   CONVERTIBLE      HARMONIC     1.000E+00    VERTICAL K  NON-WETTABLE
   56   CONVERTIBLE      HARMONIC     1.000E+00    VERTICAL K  NON-WETTABLE
   57   CONVERTIBLE      HARMONIC     1.000E+00    VERTICAL K  NON-WETTABLE
   58   CONVERTIBLE      HARMONIC     1.000E+00    VERTICAL K  NON-WETTABLE
   59   CONVERTIBLE      HARMONIC     1.000E+00    VERTICAL K  NON-WETTABLE
   60   CONVERTIBLE      HARMONIC     1.000E+00    VERTICAL K  NON-WETTABLE
   61   CONVERTIBLE      HARMONIC     1.000E+00    VERTICAL K  NON-WETTABLE
   62   CONVERTIBLE      HARMONIC     1.000E+00    VERTICAL K  NON-WETTABLE
   63   CONVERTIBLE      HARMONIC     1.000E+00    VERTICAL K  NON-WETTABLE
   64   CONVERTIBLE      HARMONIC     1.000E+00    VERTICAL K  NON-WETTABLE
   65   CONVERTIBLE      HARMONIC     1.000E+00    VERTICAL K  NON-WETTABLE
   66   CONVERTIBLE      HARMONIC     1.000E+00    VERTICAL K  NON-WETTABLE
   67   CONVERTIBLE      HARMONIC     1.000E+00    VERTICAL K  NON-WETTABLE
   68   CONVERTIBLE      HARMONIC     1.000E+00    VERTICAL K  NON-WETTABLE
   69   CONVERTIBLE      HARMONIC     1.000E+00    VERTICAL K  NON-WETTABLE
   70   CONVERTIBLE      HARMONIC     1.000E+00    VERTICAL K  NON-WETTABLE
   71   CONVERTIBLE      HARMONIC     1.000E+00    VERTICAL K  NON-WETTABLE
   72   CONVERTIBLE      HARMONIC     1.000E+00    VERTICAL K  NON-WETTABLE
   73   CONVERTIBLE      HARMONIC     1.000E+00    VERTICAL K  NON-WETTABLE
   74   CONVERTIBLE      HARMONIC     1.000E+00    VERTICAL K  NON-WETTABLE
   75   CONVERTIBLE      HARMONIC     1.000E+00    VERTICAL K  NON-WETTABLE
   76   CONVERTIBLE      HARMONIC     1.000E+00    VERTICAL K  NON-WETTABLE
   77   CONVERTIBLE      HARMONIC     1.000E+00    VERTICAL K  NON-WETTABLE
   78   CONVERTIBLE      HARMONIC     1.000E+00    VERTICAL K  NON-WETTABLE
   79   CONVERTIBLE      HARMONIC     1.000E+00    VERTICAL K  NON-WETTABLE
   80   CONVERTIBLE      HARMONIC     1.000E+00    VERTICAL K  NON-WETTABLE



              HYD. COND. ALONG ROWS FOR LAYER   1
 READING ON UNIT   11 WITH FORMAT: (10e12.4)           



                VERTICAL HYD. COND. FOR LAYER   1
 READING ON UNIT   11 WITH FORMAT: (10e12.4)           

         SPECIFIC STORAGE =  1.000000E-06 FOR LAYER   1

           SPECIFIC YIELD =  0.100000     FOR LAYER   1



              HYD. COND. ALONG ROWS FOR LAYER   2
 READING ON UNIT   11 WITH FORMAT: (10e12.4)           



                VERTICAL HYD. COND. FOR LAYER   2
 READING ON UNIT   11 WITH FORMAT: (10e12.4)           

         SPECIFIC STORAGE =  1.000000E-06 FOR LAYER   2

           SPECIFIC YIELD =  0.100000     FOR LAYER   2



              HYD. COND. ALONG ROWS FOR LAYER   3
 READING ON UNIT   11 WITH FORMAT: (10e12.4)           



                VERTICAL HYD. COND. FOR LAYER   3
 READING ON UNIT   11 WITH FORMAT: (10e12.4)           

         SPECIFIC STORAGE =  1.000000E-06 FOR LAYER   3

           SPECIFIC YIELD =  0.100000     FOR LAYER   3



              HYD. COND. ALONG ROWS FOR LAYER   4
 READING ON UNIT   11 WITH FORMAT: (10e12.4)           



                VERTICAL HYD. COND. FOR LAYER   4
 READING ON UNIT   11 WITH FORMAT: (10e12.4)           

         SPECIFIC STORAGE =  1.000000E-06 FOR LAYER   4

           SPECIFIC YIELD =  0.100000     FOR LAYER   4



              HYD. COND. ALONG ROWS FOR LAYER   5
 READING ON UNIT   11 WITH FORMAT: (10e12.4)           



                VERTICAL HYD. COND. FOR LAYER   5
 READING ON UNIT   11 WITH FORMAT: (10e12.4)           

         SPECIFIC STORAGE =  1.000000E-06 FOR LAYER   5

           SPECIFIC YIELD =  0.100000     FOR LAYER   5



              HYD. COND. ALONG ROWS FOR LAYER   6
 READING ON UNIT   11 WITH FORMAT: (10e12.4)           



                VERTICAL HYD. COND. FOR LAYER   6
 READING ON UNIT   11 WITH FORMAT: (10e12.4)           

         SPECIFIC STORAGE =  1.000000E-06 FOR LAYER   6

           SPECIFIC YIELD =  0.100000     FOR LAYER   6



              HYD. COND. ALONG ROWS FOR LAYER   7
 READING ON UNIT   11 WITH FORMAT: (10e12.4)           



                VERTICAL HYD. COND. FOR LAYER   7
 READING ON UNIT   11 WITH FORMAT: (10e12.4)           

         SPECIFIC STORAGE =  1.000000E-06 FOR LAYER   7

           SPECIFIC YIELD =  0.100000     FOR LAYER   7



              HYD. COND. ALONG ROWS FOR LAYER   8
 READING ON UNIT   11 WITH FORMAT: (10e12.4)           



                VERTICAL HYD. COND. FOR LAYER   8
 READING ON UNIT   11 WITH FORMAT: (10e12.4)           

         SPECIFIC STORAGE =  1.000000E-06 FOR LAYER   8

           SPECIFIC YIELD =  0.100000     FOR LAYER   8



              HYD. COND. ALONG ROWS FOR LAYER   9
 READING ON UNIT   11 WITH FORMAT: (10e12.4)           



                VERTICAL HYD. COND. FOR LAYER   9
 READING ON UNIT   11 WITH FORMAT: (10e12.4)           

         SPECIFIC STORAGE =  1.000000E-06 FOR LAYER   9

           SPECIFIC YIELD =  0.100000     FOR LAYER   9



              HYD. COND. ALONG ROWS FOR LAYER  10
 READING ON UNIT   11 WITH FORMAT: (10e12.4)           



                VERTICAL HYD. COND. FOR LAYER  10
 READING ON UNIT   11 WITH FORMAT: (10e12.4)           

         SPECIFIC STORAGE =  1.000000E-06 FOR LAYER  10

           SPECIFIC YIELD =  0.100000     FOR LAYER  10



              HYD. COND. ALONG ROWS FOR LAYER  11
 READING ON UNIT   11 WITH FORMAT: (10e12.4)           



                VERTICAL HYD. COND. FOR LAYER  11
 READING ON UNIT   11 WITH FORMAT: (10e12.4)           

         SPECIFIC STORAGE =  1.000000E-06 FOR LAYER  11

           SPECIFIC YIELD =  0.100000     FOR LAYER  11



              HYD. COND. ALONG ROWS FOR LAYER  12
 READING ON UNIT   11 WITH FORMAT: (10e12.4)           



                VERTICAL HYD. COND. FOR LAYER  12
 READING ON UNIT   11 WITH FORMAT: (10e12.4)           

         SPECIFIC STORAGE =  1.000000E-06 FOR LAYER  12

           SPECIFIC YIELD =  0.100000     FOR LAYER  12



              HYD. COND. ALONG ROWS FOR LAYER  13
 READING ON UNIT   11 WITH FORMAT: (10e12.4)           



                VERTICAL HYD. COND. FOR LAYER  13
 READING ON UNIT   11 WITH FORMAT: (10e12.4)           

         SPECIFIC STORAGE =  1.000000E-06 FOR LAYER  13

           SPECIFIC YIELD =  0.100000     FOR LAYER  13



              HYD. COND. ALONG ROWS FOR LAYER  14
 READING ON UNIT   11 WITH FORMAT: (10e12.4)           



                VERTICAL HYD. COND. FOR LAYER  14
 READING ON UNIT   11 WITH FORMAT: (10e12.4)           

         SPECIFIC STORAGE =  1.000000E-06 FOR LAYER  14

           SPECIFIC YIELD =  0.100000     FOR LAYER  14



              HYD. COND. ALONG ROWS FOR LAYER  15
 READING ON UNIT   11 WITH FORMAT: (10e12.4)           



                VERTICAL HYD. COND. FOR LAYER  15
 READING ON UNIT   11 WITH FORMAT: (10e12.4)           

         SPECIFIC STORAGE =  1.000000E-06 FOR LAYER  15

           SPECIFIC YIELD =  0.100000     FOR LAYER  15



              HYD. COND. ALONG ROWS FOR LAYER  16
 READING ON UNIT   11 WITH FORMAT: (10e12.4)           



                VERTICAL HYD. COND. FOR LAYER  16
 READING ON UNIT   11 WITH FORMAT: (10e12.4)           

         SPECIFIC STORAGE =  1.000000E-06 FOR LAYER  16

           SPECIFIC YIELD =  0.100000     FOR LAYER  16



              HYD. COND. ALONG ROWS FOR LAYER  17
 READING ON UNIT   11 WITH FORMAT: (10e12.4)           



                VERTICAL HYD. COND. FOR LAYER  17
 READING ON UNIT   11 WITH FORMAT: (10e12.4)           

         SPECIFIC STORAGE =  1.000000E-06 FOR LAYER  17

           SPECIFIC YIELD =  0.100000     FOR LAYER  17



              HYD. COND. ALONG ROWS FOR LAYER  18
 READING ON UNIT   11 WITH FORMAT: (10e12.4)           



                VERTICAL HYD. COND. FOR LAYER  18
 READING ON UNIT   11 WITH FORMAT: (10e12.4)           

         SPECIFIC STORAGE =  1.000000E-06 FOR LAYER  18

           SPECIFIC YIELD =  0.100000     FOR LAYER  18



              HYD. COND. ALONG ROWS FOR LAYER  19
 READING ON UNIT   11 WITH FORMAT: (10e12.4)           



                VERTICAL HYD. COND. FOR LAYER  19
 READING ON UNIT   11 WITH FORMAT: (10e12.4)           

         SPECIFIC STORAGE =  1.000000E-06 FOR LAYER  19

           SPECIFIC YIELD =  0.100000     FOR LAYER  19



              HYD. COND. ALONG ROWS FOR LAYER  20
 READING ON UNIT   11 WITH FORMAT: (10e12.4)           



                VERTICAL HYD. COND. FOR LAYER  20
 READING ON UNIT   11 WITH FORMAT: (10e12.4)           

         SPECIFIC STORAGE =  1.000000E-06 FOR LAYER  20

           SPECIFIC YIELD =  0.100000     FOR LAYER  20



              HYD. COND. ALONG ROWS FOR LAYER  21
 READING ON UNIT   11 WITH FORMAT: (10e12.4)           



                VERTICAL HYD. COND. FOR LAYER  21
 READING ON UNIT   11 WITH FORMAT: (10e12.4)           

         SPECIFIC STORAGE =  1.000000E-06 FOR LAYER  21

           SPECIFIC YIELD =  0.100000     FOR LAYER  21



              HYD. COND. ALONG ROWS FOR LAYER  22
 READING ON UNIT   11 WITH FORMAT: (10e12.4)           



                VERTICAL HYD. COND. FOR LAYER  22
 READING ON UNIT   11 WITH FORMAT: (10e12.4)           

         SPECIFIC STORAGE =  1.000000E-06 FOR LAYER  22

           SPECIFIC YIELD =  0.100000     FOR LAYER  22



              HYD. COND. ALONG ROWS FOR LAYER  23
 READING ON UNIT   11 WITH FORMAT: (10e12.4)           



                VERTICAL HYD. COND. FOR LAYER  23
 READING ON UNIT   11 WITH FORMAT: (10e12.4)           

         SPECIFIC STORAGE =  1.000000E-06 FOR LAYER  23

           SPECIFIC YIELD =  0.100000     FOR LAYER  23



              HYD. COND. ALONG ROWS FOR LAYER  24
 READING ON UNIT   11 WITH FORMAT: (10e12.4)           



                VERTICAL HYD. COND. FOR LAYER  24
 READING ON UNIT   11 WITH FORMAT: (10e12.4)           

         SPECIFIC STORAGE =  1.000000E-06 FOR LAYER  24

           SPECIFIC YIELD =  0.100000     FOR LAYER  24



              HYD. COND. ALONG ROWS FOR LAYER  25
 READING ON UNIT   11 WITH FORMAT: (10e12.4)           



                VERTICAL HYD. COND. FOR LAYER  25
 READING ON UNIT   11 WITH FORMAT: (10e12.4)           

         SPECIFIC STORAGE =  1.000000E-06 FOR LAYER  25

           SPECIFIC YIELD =  0.100000     FOR LAYER  25



              HYD. COND. ALONG ROWS FOR LAYER  26
 READING ON UNIT   11 WITH FORMAT: (10e12.4)           



                VERTICAL HYD. COND. FOR LAYER  26
 READING ON UNIT   11 WITH FORMAT: (10e12.4)           

         SPECIFIC STORAGE =  1.000000E-06 FOR LAYER  26

           SPECIFIC YIELD =  0.100000     FOR LAYER  26



              HYD. COND. ALONG ROWS FOR LAYER  27
 READING ON UNIT   11 WITH FORMAT: (10e12.4)           



                VERTICAL HYD. COND. FOR LAYER  27
 READING ON UNIT   11 WITH FORMAT: (10e12.4)           

         SPECIFIC STORAGE =  1.000000E-06 FOR LAYER  27

           SPECIFIC YIELD =  0.100000     FOR LAYER  27



              HYD. COND. ALONG ROWS FOR LAYER  28
 READING ON UNIT   11 WITH FORMAT: (10e12.4)           



                VERTICAL HYD. COND. FOR LAYER  28
 READING ON UNIT   11 WITH FORMAT: (10e12.4)           

         SPECIFIC STORAGE =  1.000000E-06 FOR LAYER  28

           SPECIFIC YIELD =  0.100000     FOR LAYER  28



              HYD. COND. ALONG ROWS FOR LAYER  29
 READING ON UNIT   11 WITH FORMAT: (10e12.4)           



                VERTICAL HYD. COND. FOR LAYER  29
 READING ON UNIT   11 WITH FORMAT: (10e12.4)           

         SPECIFIC STORAGE =  1.000000E-06 FOR LAYER  29

           SPECIFIC YIELD =  0.100000     FOR LAYER  29



              HYD. COND. ALONG ROWS FOR LAYER  30
 READING ON UNIT   11 WITH FORMAT: (10e12.4)           



                VERTICAL HYD. COND. FOR LAYER  30
 READING ON UNIT   11 WITH FORMAT: (10e12.4)           

         SPECIFIC STORAGE =  1.000000E-06 FOR LAYER  30

           SPECIFIC YIELD =  0.100000     FOR LAYER  30



              HYD. COND. ALONG ROWS FOR LAYER  31
 READING ON UNIT   11 WITH FORMAT: (10e12.4)           



                VERTICAL HYD. COND. FOR LAYER  31
 READING ON UNIT   11 WITH FORMAT: (10e12.4)           

         SPECIFIC STORAGE =  1.000000E-06 FOR LAYER  31

           SPECIFIC YIELD =  0.100000     FOR LAYER  31



              HYD. COND. ALONG ROWS FOR LAYER  32
 READING ON UNIT   11 WITH FORMAT: (10e12.4)           



                VERTICAL HYD. COND. FOR LAYER  32
 READING ON UNIT   11 WITH FORMAT: (10e12.4)           

         SPECIFIC STORAGE =  1.000000E-06 FOR LAYER  32

           SPECIFIC YIELD =  0.100000     FOR LAYER  32



              HYD. COND. ALONG ROWS FOR LAYER  33
 READING ON UNIT   11 WITH FORMAT: (10e12.4)           



                VERTICAL HYD. COND. FOR LAYER  33
 READING ON UNIT   11 WITH FORMAT: (10e12.4)           

         SPECIFIC STORAGE =  1.000000E-06 FOR LAYER  33

           SPECIFIC YIELD =  0.100000     FOR LAYER  33



              HYD. COND. ALONG ROWS FOR LAYER  34
 READING ON UNIT   11 WITH FORMAT: (10e12.4)           



                VERTICAL HYD. COND. FOR LAYER  34
 READING ON UNIT   11 WITH FORMAT: (10e12.4)           

         SPECIFIC STORAGE =  1.000000E-06 FOR LAYER  34

           SPECIFIC YIELD =  0.100000     FOR LAYER  34



              HYD. COND. ALONG ROWS FOR LAYER  35
 READING ON UNIT   11 WITH FORMAT: (10e12.4)           



                VERTICAL HYD. COND. FOR LAYER  35
 READING ON UNIT   11 WITH FORMAT: (10e12.4)           

         SPECIFIC STORAGE =  1.000000E-06 FOR LAYER  35

           SPECIFIC YIELD =  0.100000     FOR LAYER  35



              HYD. COND. ALONG ROWS FOR LAYER  36
 READING ON UNIT   11 WITH FORMAT: (10e12.4)           



                VERTICAL HYD. COND. FOR LAYER  36
 READING ON UNIT   11 WITH FORMAT: (10e12.4)           

         SPECIFIC STORAGE =  1.000000E-06 FOR LAYER  36

           SPECIFIC YIELD =  0.100000     FOR LAYER  36



              HYD. COND. ALONG ROWS FOR LAYER  37
 READING ON UNIT   11 WITH FORMAT: (10e12.4)           



                VERTICAL HYD. COND. FOR LAYER  37
 READING ON UNIT   11 WITH FORMAT: (10e12.4)           

         SPECIFIC STORAGE =  1.000000E-06 FOR LAYER  37

           SPECIFIC YIELD =  0.100000     FOR LAYER  37



              HYD. COND. ALONG ROWS FOR LAYER  38
 READING ON UNIT   11 WITH FORMAT: (10e12.4)           



                VERTICAL HYD. COND. FOR LAYER  38
 READING ON UNIT   11 WITH FORMAT: (10e12.4)           

         SPECIFIC STORAGE =  1.000000E-06 FOR LAYER  38

           SPECIFIC YIELD =  0.100000     FOR LAYER  38



              HYD. COND. ALONG ROWS FOR LAYER  39
 READING ON UNIT   11 WITH FORMAT: (10e12.4)           



                VERTICAL HYD. COND. FOR LAYER  39
 READING ON UNIT   11 WITH FORMAT: (10e12.4)           

         SPECIFIC STORAGE =  1.000000E-06 FOR LAYER  39

           SPECIFIC YIELD =  0.100000     FOR LAYER  39



              HYD. COND. ALONG ROWS FOR LAYER  40
 READING ON UNIT   11 WITH FORMAT: (10e12.4)           



                VERTICAL HYD. COND. FOR LAYER  40
 READING ON UNIT   11 WITH FORMAT: (10e12.4)           

         SPECIFIC STORAGE =  1.000000E-06 FOR LAYER  40

           SPECIFIC YIELD =  0.100000     FOR LAYER  40



              HYD. COND. ALONG ROWS FOR LAYER  41
 READING ON UNIT   11 WITH FORMAT: (10e12.4)           



                VERTICAL HYD. COND. FOR LAYER  41
 READING ON UNIT   11 WITH FORMAT: (10e12.4)           

         SPECIFIC STORAGE =  1.000000E-06 FOR LAYER  41

           SPECIFIC YIELD =  0.100000     FOR LAYER  41



              HYD. COND. ALONG ROWS FOR LAYER  42
 READING ON UNIT   11 WITH FORMAT: (10e12.4)           



                VERTICAL HYD. COND. FOR LAYER  42
 READING ON UNIT   11 WITH FORMAT: (10e12.4)           

         SPECIFIC STORAGE =  1.000000E-06 FOR LAYER  42

           SPECIFIC YIELD =  0.100000     FOR LAYER  42



              HYD. COND. ALONG ROWS FOR LAYER  43
 READING ON UNIT   11 WITH FORMAT: (10e12.4)           



                VERTICAL HYD. COND. FOR LAYER  43
 READING ON UNIT   11 WITH FORMAT: (10e12.4)           

         SPECIFIC STORAGE =  1.000000E-06 FOR LAYER  43

           SPECIFIC YIELD =  0.100000     FOR LAYER  43



              HYD. COND. ALONG ROWS FOR LAYER  44
 READING ON UNIT   11 WITH FORMAT: (10e12.4)           



                VERTICAL HYD. COND. FOR LAYER  44
 READING ON UNIT   11 WITH FORMAT: (10e12.4)           

         SPECIFIC STORAGE =  1.000000E-06 FOR LAYER  44

           SPECIFIC YIELD =  0.100000     FOR LAYER  44



              HYD. COND. ALONG ROWS FOR LAYER  45
 READING ON UNIT   11 WITH FORMAT: (10e12.4)           



                VERTICAL HYD. COND. FOR LAYER  45
 READING ON UNIT   11 WITH FORMAT: (10e12.4)           

         SPECIFIC STORAGE =  1.000000E-06 FOR LAYER  45

           SPECIFIC YIELD =  0.100000     FOR LAYER  45



              HYD. COND. ALONG ROWS FOR LAYER  46
 READING ON UNIT   11 WITH FORMAT: (10e12.4)           



                VERTICAL HYD. COND. FOR LAYER  46
 READING ON UNIT   11 WITH FORMAT: (10e12.4)           

         SPECIFIC STORAGE =  1.000000E-06 FOR LAYER  46

           SPECIFIC YIELD =  0.100000     FOR LAYER  46



              HYD. COND. ALONG ROWS FOR LAYER  47
 READING ON UNIT   11 WITH FORMAT: (10e12.4)           



                VERTICAL HYD. COND. FOR LAYER  47
 READING ON UNIT   11 WITH FORMAT: (10e12.4)           

         SPECIFIC STORAGE =  1.000000E-06 FOR LAYER  47

           SPECIFIC YIELD =  0.100000     FOR LAYER  47



              HYD. COND. ALONG ROWS FOR LAYER  48
 READING ON UNIT   11 WITH FORMAT: (10e12.4)           



                VERTICAL HYD. COND. FOR LAYER  48
 READING ON UNIT   11 WITH FORMAT: (10e12.4)           

         SPECIFIC STORAGE =  1.000000E-06 FOR LAYER  48

           SPECIFIC YIELD =  0.100000     FOR LAYER  48



              HYD. COND. ALONG ROWS FOR LAYER  49
 READING ON UNIT   11 WITH FORMAT: (10e12.4)           



                VERTICAL HYD. COND. FOR LAYER  49
 READING ON UNIT   11 WITH FORMAT: (10e12.4)           

         SPECIFIC STORAGE =  1.000000E-06 FOR LAYER  49

           SPECIFIC YIELD =  0.100000     FOR LAYER  49



              HYD. COND. ALONG ROWS FOR LAYER  50
 READING ON UNIT   11 WITH FORMAT: (10e12.4)           



                VERTICAL HYD. COND. FOR LAYER  50
 READING ON UNIT   11 WITH FORMAT: (10e12.4)           

         SPECIFIC STORAGE =  1.000000E-06 FOR LAYER  50

           SPECIFIC YIELD =  0.100000     FOR LAYER  50



              HYD. COND. ALONG ROWS FOR LAYER  51
 READING ON UNIT   11 WITH FORMAT: (10e12.4)           



                VERTICAL HYD. COND. FOR LAYER  51
 READING ON UNIT   11 WITH FORMAT: (10e12.4)           

         SPECIFIC STORAGE =  1.000000E-06 FOR LAYER  51

           SPECIFIC YIELD =  0.100000     FOR LAYER  51



              HYD. COND. ALONG ROWS FOR LAYER  52
 READING ON UNIT   11 WITH FORMAT: (10e12.4)           



                VERTICAL HYD. COND. FOR LAYER  52
 READING ON UNIT   11 WITH FORMAT: (10e12.4)           

         SPECIFIC STORAGE =  1.000000E-06 FOR LAYER  52

           SPECIFIC YIELD =  0.100000     FOR LAYER  52



              HYD. COND. ALONG ROWS FOR LAYER  53
 READING ON UNIT   11 WITH FORMAT: (10e12.4)           



                VERTICAL HYD. COND. FOR LAYER  53
 READING ON UNIT   11 WITH FORMAT: (10e12.4)           

         SPECIFIC STORAGE =  1.000000E-06 FOR LAYER  53

           SPECIFIC YIELD =  0.100000     FOR LAYER  53



              HYD. COND. ALONG ROWS FOR LAYER  54
 READING ON UNIT   11 WITH FORMAT: (10e12.4)           



                VERTICAL HYD. COND. FOR LAYER  54
 READING ON UNIT   11 WITH FORMAT: (10e12.4)           

         SPECIFIC STORAGE =  1.000000E-06 FOR LAYER  54

           SPECIFIC YIELD =  0.100000     FOR LAYER  54



              HYD. COND. ALONG ROWS FOR LAYER  55
 READING ON UNIT   11 WITH FORMAT: (10e12.4)           



                VERTICAL HYD. COND. FOR LAYER  55
 READING ON UNIT   11 WITH FORMAT: (10e12.4)           

         SPECIFIC STORAGE =  1.000000E-06 FOR LAYER  55

           SPECIFIC YIELD =  0.100000     FOR LAYER  55



              HYD. COND. ALONG ROWS FOR LAYER  56
 READING ON UNIT   11 WITH FORMAT: (10e12.4)           



                VERTICAL HYD. COND. FOR LAYER  56
 READING ON UNIT   11 WITH FORMAT: (10e12.4)           

         SPECIFIC STORAGE =  1.000000E-06 FOR LAYER  56

           SPECIFIC YIELD =  0.100000     FOR LAYER  56



              HYD. COND. ALONG ROWS FOR LAYER  57
 READING ON UNIT   11 WITH FORMAT: (10e12.4)           



                VERTICAL HYD. COND. FOR LAYER  57
 READING ON UNIT   11 WITH FORMAT: (10e12.4)           

         SPECIFIC STORAGE =  1.000000E-06 FOR LAYER  57

           SPECIFIC YIELD =  0.100000     FOR LAYER  57



              HYD. COND. ALONG ROWS FOR LAYER  58
 READING ON UNIT   11 WITH FORMAT: (10e12.4)           



                VERTICAL HYD. COND. FOR LAYER  58
 READING ON UNIT   11 WITH FORMAT: (10e12.4)           

         SPECIFIC STORAGE =  1.000000E-06 FOR LAYER  58

           SPECIFIC YIELD =  0.100000     FOR LAYER  58



              HYD. COND. ALONG ROWS FOR LAYER  59
 READING ON UNIT   11 WITH FORMAT: (10e12.4)           



                VERTICAL HYD. COND. FOR LAYER  59
 READING ON UNIT   11 WITH FORMAT: (10e12.4)           

         SPECIFIC STORAGE =  1.000000E-06 FOR LAYER  59

           SPECIFIC YIELD =  0.100000     FOR LAYER  59



              HYD. COND. ALONG ROWS FOR LAYER  60
 READING ON UNIT   11 WITH FORMAT: (10e12.4)           



                VERTICAL HYD. COND. FOR LAYER  60
 READING ON UNIT   11 WITH FORMAT: (10e12.4)           

         SPECIFIC STORAGE =  1.000000E-06 FOR LAYER  60

           SPECIFIC YIELD =  0.100000     FOR LAYER  60



              HYD. COND. ALONG ROWS FOR LAYER  61
 READING ON UNIT   11 WITH FORMAT: (10e12.4)           



                VERTICAL HYD. COND. FOR LAYER  61
 READING ON UNIT   11 WITH FORMAT: (10e12.4)           

         SPECIFIC STORAGE =  1.000000E-06 FOR LAYER  61

           SPECIFIC YIELD =  0.100000     FOR LAYER  61



              HYD. COND. ALONG ROWS FOR LAYER  62
 READING ON UNIT   11 WITH FORMAT: (10e12.4)           



                VERTICAL HYD. COND. FOR LAYER  62
 READING ON UNIT   11 WITH FORMAT: (10e12.4)           

         SPECIFIC STORAGE =  1.000000E-06 FOR LAYER  62

           SPECIFIC YIELD =  0.100000     FOR LAYER  62



              HYD. COND. ALONG ROWS FOR LAYER  63
 READING ON UNIT   11 WITH FORMAT: (10e12.4)           



                VERTICAL HYD. COND. FOR LAYER  63
 READING ON UNIT   11 WITH FORMAT: (10e12.4)           

         SPECIFIC STORAGE =  1.000000E-06 FOR LAYER  63

           SPECIFIC YIELD =  0.100000     FOR LAYER  63



              HYD. COND. ALONG ROWS FOR LAYER  64
 READING ON UNIT   11 WITH FORMAT: (10e12.4)           



                VERTICAL HYD. COND. FOR LAYER  64
 READING ON UNIT   11 WITH FORMAT: (10e12.4)           

         SPECIFIC STORAGE =  1.000000E-06 FOR LAYER  64

           SPECIFIC YIELD =  0.100000     FOR LAYER  64



              HYD. COND. ALONG ROWS FOR LAYER  65
 READING ON UNIT   11 WITH FORMAT: (10e12.4)           



                VERTICAL HYD. COND. FOR LAYER  65
 READING ON UNIT   11 WITH FORMAT: (10e12.4)           

         SPECIFIC STORAGE =  1.000000E-06 FOR LAYER  65

           SPECIFIC YIELD =  0.100000     FOR LAYER  65



              HYD. COND. ALONG ROWS FOR LAYER  66
 READING ON UNIT   11 WITH FORMAT: (10e12.4)           



                VERTICAL HYD. COND. FOR LAYER  66
 READING ON UNIT   11 WITH FORMAT: (10e12.4)           

         SPECIFIC STORAGE =  1.000000E-06 FOR LAYER  66

           SPECIFIC YIELD =  0.100000     FOR LAYER  66



              HYD. COND. ALONG ROWS FOR LAYER  67
 READING ON UNIT   11 WITH FORMAT: (10e12.4)           



                VERTICAL HYD. COND. FOR LAYER  67
 READING ON UNIT   11 WITH FORMAT: (10e12.4)           

         SPECIFIC STORAGE =  1.000000E-06 FOR LAYER  67

           SPECIFIC YIELD =  0.100000     FOR LAYER  67



              HYD. COND. ALONG ROWS FOR LAYER  68
 READING ON UNIT   11 WITH FORMAT: (10e12.4)           



                VERTICAL HYD. COND. FOR LAYER  68
 READING ON UNIT   11 WITH FORMAT: (10e12.4)           

         SPECIFIC STORAGE =  1.000000E-06 FOR LAYER  68

           SPECIFIC YIELD =  0.100000     FOR LAYER  68



              HYD. COND. ALONG ROWS FOR LAYER  69
 READING ON UNIT   11 WITH FORMAT: (10e12.4)           



                VERTICAL HYD. COND. FOR LAYER  69
 READING ON UNIT   11 WITH FORMAT: (10e12.4)           

         SPECIFIC STORAGE =  1.000000E-06 FOR LAYER  69

           SPECIFIC YIELD =  0.100000     FOR LAYER  69



              HYD. COND. ALONG ROWS FOR LAYER  70
 READING ON UNIT   11 WITH FORMAT: (10e12.4)           



                VERTICAL HYD. COND. FOR LAYER  70
 READING ON UNIT   11 WITH FORMAT: (10e12.4)           

         SPECIFIC STORAGE =  1.000000E-06 FOR LAYER  70

           SPECIFIC YIELD =  0.100000     FOR LAYER  70



              HYD. COND. ALONG ROWS FOR LAYER  71
 READING ON UNIT   11 WITH FORMAT: (10e12.4)           



                VERTICAL HYD. COND. FOR LAYER  71
 READING ON UNIT   11 WITH FORMAT: (10e12.4)           

         SPECIFIC STORAGE =  1.000000E-06 FOR LAYER  71

           SPECIFIC YIELD =  0.100000     FOR LAYER  71



              HYD. COND. ALONG ROWS FOR LAYER  72
 READING ON UNIT   11 WITH FORMAT: (10e12.4)           



                VERTICAL HYD. COND. FOR LAYER  72
 READING ON UNIT   11 WITH FORMAT: (10e12.4)           

         SPECIFIC STORAGE =  1.000000E-06 FOR LAYER  72

           SPECIFIC YIELD =  0.100000     FOR LAYER  72



              HYD. COND. ALONG ROWS FOR LAYER  73
 READING ON UNIT   11 WITH FORMAT: (10e12.4)           



                VERTICAL HYD. COND. FOR LAYER  73
 READING ON UNIT   11 WITH FORMAT: (10e12.4)           

         SPECIFIC STORAGE =  1.000000E-06 FOR LAYER  73

           SPECIFIC YIELD =  0.100000     FOR LAYER  73



              HYD. COND. ALONG ROWS FOR LAYER  74
 READING ON UNIT   11 WITH FORMAT: (10e12.4)           



                VERTICAL HYD. COND. FOR LAYER  74
 READING ON UNIT   11 WITH FORMAT: (10e12.4)           

         SPECIFIC STORAGE =  1.000000E-06 FOR LAYER  74

           SPECIFIC YIELD =  0.100000     FOR LAYER  74



              HYD. COND. ALONG ROWS FOR LAYER  75
 READING ON UNIT   11 WITH FORMAT: (10e12.4)           



                VERTICAL HYD. COND. FOR LAYER  75
 READING ON UNIT   11 WITH FORMAT: (10e12.4)           

         SPECIFIC STORAGE =  1.000000E-06 FOR LAYER  75

           SPECIFIC YIELD =  0.100000     FOR LAYER  75



              HYD. COND. ALONG ROWS FOR LAYER  76
 READING ON UNIT   11 WITH FORMAT: (10e12.4)           



                VERTICAL HYD. COND. FOR LAYER  76
 READING ON UNIT   11 WITH FORMAT: (10e12.4)           

         SPECIFIC STORAGE =  1.000000E-06 FOR LAYER  76

           SPECIFIC YIELD =  0.100000     FOR LAYER  76



              HYD. COND. ALONG ROWS FOR LAYER  77
 READING ON UNIT   11 WITH FORMAT: (10e12.4)           



                VERTICAL HYD. COND. FOR LAYER  77
 READING ON UNIT   11 WITH FORMAT: (10e12.4)           

         SPECIFIC STORAGE =  1.000000E-06 FOR LAYER  77

           SPECIFIC YIELD =  0.100000     FOR LAYER  77



              HYD. COND. ALONG ROWS FOR LAYER  78
 READING ON UNIT   11 WITH FORMAT: (10e12.4)           



                VERTICAL HYD. COND. FOR LAYER  78
 READING ON UNIT   11 WITH FORMAT: (10e12.4)           

         SPECIFIC STORAGE =  1.000000E-06 FOR LAYER  78

           SPECIFIC YIELD =  0.100000     FOR LAYER  78



              HYD. COND. ALONG ROWS FOR LAYER  79
 READING ON UNIT   11 WITH FORMAT: (10e12.4)           



                VERTICAL HYD. COND. FOR LAYER  79
 READING ON UNIT   11 WITH FORMAT: (10e12.4)           

         SPECIFIC STORAGE =  1.000000E-06 FOR LAYER  79

           SPECIFIC YIELD =  0.100000     FOR LAYER  79



              HYD. COND. ALONG ROWS FOR LAYER  80
 READING ON UNIT   11 WITH FORMAT: (10e12.4)           



                VERTICAL HYD. COND. FOR LAYER  80
 READING ON UNIT   11 WITH FORMAT: (10e12.4)           

         SPECIFIC STORAGE =  1.000000E-06 FOR LAYER  80

           SPECIFIC YIELD =  0.100000     FOR LAYER  80

 CHD -- TIME-VARIANT SPECIFIED-HEAD OPTION, VERSION 7, 5/2/2005
 INPUT READ FROM UNIT   15
 No named parameters
 MAXIMUM OF     53 TIME-VARIANT SPECIFIED-HEAD CELLS AT ONE TIME


     0 TIME-VARIANT SPECIFIED-HEAD PARAMETERS

 UZF1 -- UNSATURATED FLOW PACKAGE, VERSION 1.0.5, 10/01/2011
         INPUT READ FROM UNIT 14
 #An unsaturated version of the Keating model
 #NUZTOP IUZFOPT IRUNFLG IETFLG IUZFCB1 IUZFCB2 [NTRAIL2 NSETS2] NUZGAG SURFDEP RTSOLUTE
 No named parameters
 
 RESIDUAL WATER CONTENT (THTR) WILL BE 
 CALCULATED AS THE DIFFERENCE BETWEEN THTS AND SY
 
 
 INITIAL WATER CONTENT (THTI) WILL BE 
 CALCULATED BASED ON THE SS INFILTRATION RATE 
IF STARTING WITH SS.
 



            AREAL EXTENT OF UZ FLOW
 READING ON UNIT   14 WITH FORMAT: (FREE)              
 OPTION 3 -- RECHARGE IN UZF TO HIGHEST ACTIVE NODE IN EACH VERTICAL COLUMN
 LMT ACTIVE: WILL WRITE UZF FLUXES TO FILE SPECIFIED IN LMT INPUT FILE

     SATURATED VERTICAL K =  0.850000    

     BROOKS-COREY EPSILON =   4.00000    

  SATURATED WATER CONTENT =  0.300000    
 ****Units are undefined. This may cause 
 unfortunate results when using GSFLOW****


 ***Link-MT3DMS Package v7***
 OPENING LINK-MT3DMS OUTPUT FILE: gv1.ftl                                                                                                                                                                                                 
 ON UNIT NUMBER:    13
 FILE TYPE: FORMATTED  
 HEADER OPTION: EXTENDED
 ***Link-MT3DMS Package v7***

1
                            STRESS PERIOD NO.    1, LENGTH =   10000.00    
                            -----------------------------------------------

                              NUMBER OF TIME STEPS =     1

                               MULTIPLIER FOR DELT =     1.000

                            INITIAL TIME STEP SIZE =   10000.00    

 CHD NO.   LAYER   ROW   COL    START HEAD        END HEAD         
 ------------------------------------------------------------------
      1     49      1      1       800.0           800.0    
      2     50      1      1       800.0           800.0    
      3     51      1      1       800.0           800.0    
      4     52      1      1       800.0           800.0    
      5     53      1      1       800.0           800.0    
      6     54      1      1       800.0           800.0    
      7     55      1      1       800.0           800.0    
      8     56      1      1       800.0           800.0    
      9     57      1      1       800.0           800.0    
     10     58      1      1       800.0           800.0    
     11     59      1      1       800.0           800.0    
     12     60      1      1       800.0           800.0    
     13     61      1      1       800.0           800.0    
     14     62      1      1       800.0           800.0    
     15     63      1      1       800.0           800.0    
     16     64      1      1       800.0           800.0    
     17     65      1      1       800.0           800.0    
     18     66      1      1       800.0           800.0    
     19     67      1      1       800.0           800.0    
     20     68      1      1       800.0           800.0    
     21     69      1      1       800.0           800.0    
     22     70      1      1       800.0           800.0    
     23     71      1      1       800.0           800.0    
     24     72      1      1       800.0           800.0    
     25     73      1      1       800.0           800.0    
     26     74      1      1       800.0           800.0    
     27     75      1      1       800.0           800.0    
     28     76      1      1       800.0           800.0    
     29     77      1      1       800.0           800.0    
     30     78      1      1       800.0           800.0    
     31     79      1      1       800.0           800.0    
     32     80      1      1       800.0           800.0    
     33     77      1    400       100.0           100.0    
     34     78      1    400       100.0           100.0    
     35     79      1    400       100.0           100.0    
     36     80      1    400       100.0           100.0    


     36 TIME-VARIANT SPECIFIED-HEAD CELLS



            AREAL INFILTRATION RATE
 READING ON UNIT   14 WITH FORMAT: (FREE)              
 
 SOLVING FOR HEAD 
                                                   Max.-Head-Change                         Max.-Flux-Residual
  Residual-Control   Outer-Iter.   Inner-Iter.     Column Row Layer    Maximum-Head-Change  Column Row Layer    Maximum-Flux-Residual          L2-NORM 
          0                 1          68           171    1    36       0.9343885263E+07     400    1   76        -0.4237900078E+03      0.1466842250E+04
          0                 2         200           163    1     1       0.2614571474E+08     169    1    1        -0.2380031340E+08      0.1248473271E+09
          0                 3         200           139    1     1       0.6460749772E+09     163    1    2        -0.4405178350E+08      0.3241026499E+09
          0                 4         110           139    1     1      -0.3812288536E+09     139    1    1        -0.1003316915E+10      0.7221162054E+10
          0                 5         108           139    1     1      -0.1563036369E+09     139    1    1        -0.4112897184E+09      0.2960170454E+10
          0                 6         111           139    1     4      -0.6406876082E+08     139    1    1        -0.1685588715E+09      0.1213166618E+10
          0                 7         110           139    1     1      -0.2625535984E+08     139    1    1        -0.6906362899E+08      0.4970707593E+09
          0                 8         101           139    1     1      -0.1075681104E+08     139    1    1        -0.2829053540E+08      0.2036151154E+09
          0                 9         106           139    1     1      -0.4405991053E+07     139    1    1        -0.1158582339E+08      0.8338650391E+08
          0                10         111           139    1     7      -0.1804247705E+07     139    1    1        -0.4743583847E+07      0.3414093732E+08
                                                   Max.-Head-Change                         Max.-Flux-Residual
  Residual-Control   Outer-Iter.   Inner-Iter.     Column Row Layer    Maximum-Head-Change  Column Row Layer    Maximum-Flux-Residual          L2-NORM 
          0                11         107           139    1    35      -0.7388855664E+06     139    1    1        -0.1941691248E+07      0.1397491011E+08
          0                12          94           139    1    36      -0.3024213400E+06     139    1    1        -0.7945983391E+06      0.5718954344E+07
          0                13         100           139    1    36      -0.1237372935E+06     139    1    1        -0.3250940306E+06      0.2339797840E+07
          0                14          94           139    1    36      -0.5063538902E+05     139    1    8        -0.1329811281E+06      0.9571379882E+06
          0                15          89           139    1     6      -0.2076556793E+05     139    1    7        -0.5438672240E+05      0.3914626488E+06
          0                16          85           139    1     1      -0.8525949587E+04     139    1   23        -0.2223200813E+05      0.1600096454E+06
          0                17          88           139    1     1      -0.3506050179E+04     139    1   26        -0.9086391294E+04      0.6533397495E+05
          0                18          85           139    1    12      -0.1457844496E+04     139    1   26        -0.3712972213E+04      0.2673792154E+05
          0                19          81           139    1    24      -0.6038068081E+03     139    1    3        -0.1539844681E+04      0.1105407845E+05
          0                20          71           139    1    30      -0.2366587609E+03     139    1    3        -0.6394425562E+03      0.4543859173E+04
                                                   Max.-Head-Change                         Max.-Flux-Residual
  Residual-Control   Outer-Iter.   Inner-Iter.     Column Row Layer    Maximum-Head-Change  Column Row Layer    Maximum-Flux-Residual          L2-NORM 
          0                21          51           141    1     1       0.1574585598E+03     139    1   19        -0.2636015084E+03      0.1434907547E+04
          0                22          62           141    1     1       0.1261241368E+03     139    1   27        -0.1080519938E+03      0.5696805409E+03
          0                23          62           141    1     1       0.9460636975E+02     270    1   50        -0.7384575273E+02      0.3479836556E+03
          0                24          56           141    1     1       0.7403707427E+02     270    1   50        -0.6452880727E+02      0.2821500198E+03
          0                25          55           351    1     1      -0.9640482952E+02     242    1   17        -0.6042672824E+02      0.2594396344E+03
          0                26          66           351    1     1      -0.5938610765E+02     242    1   17        -0.5903245768E+02      0.2463693713E+03
          0                27          49           242    1     4       0.4904954935E+02     242    1   17        -0.5409336770E+02      0.2343813895E+03
          0                28          63           242    1     4       0.4215173441E+02     242    1    3         0.5728071144E+02      0.2231102422E+03
          0                29          60           242    1     1       0.3783534666E+02     242    1    3         0.5820245643E+02      0.2105448447E+03
          0                30          56           141    1     1       0.3519650228E+02     242    1    3         0.5727165180E+02      0.1971961859E+03
                                                   Max.-Head-Change                         Max.-Flux-Residual
  Residual-Control   Outer-Iter.   Inner-Iter.     Column Row Layer    Maximum-Head-Change  Column Row Layer    Maximum-Flux-Residual          L2-NORM 
          0                31          57           141    1     1       0.3339472820E+02     242    1    3         0.5505538073E+02      0.1842043636E+03
          0                32          56           141    1     1       0.3228426610E+02     242    1    3         0.5201069381E+02      0.1723468703E+03
          0                33          52           141    1     1       0.3122703050E+02     242    1    3         0.4845259260E+02      0.1615875595E+03
          0                34          53           141    1     1       0.3010902891E+02     242    1    3         0.4462921201E+02      0.1520406279E+03
          0                35          53           141    1     1       0.2878795139E+02     242    1    3         0.4071289479E+02      0.1437124985E+03
          0                36          53           141    1     1       0.2691122649E+02     242    1    3         0.3681278095E+02      0.1363759285E+03
          0                37          53           141    1     1       0.2438581796E+02     242    1    3         0.3305975002E+02      0.1304378274E+03
          0                38          56           141    1     1       0.2036239007E+02     242    1    3         0.2926708438E+02      0.1243549855E+03
          0                39          52           318    1     1       0.2095325171E+02     242    1    3         0.2556669533E+02      0.1185035409E+03
          0                40          56           318    1     1       0.2263695972E+02     242    1    3         0.2205251149E+02      0.1130950873E+03
                                                   Max.-Head-Change                         Max.-Flux-Residual
  Residual-Control   Outer-Iter.   Inner-Iter.     Column Row Layer    Maximum-Head-Change  Column Row Layer    Maximum-Flux-Residual          L2-NORM 
          0                41          50           318    1     1       0.2752510575E+02     242    1    3         0.1878881629E+02      0.1085939060E+03
          0                42          54           104    1     1       0.1449480516E+02     242    1    3         0.1581832807E+02      0.1048998954E+03
          0                43          48           104    1     1       0.1401172052E+02     242    1    3         0.1315477001E+02      0.1018567625E+03
          0                44          50           104    1     1       0.1343590498E+02     168    1    2        -0.1201019775E+02      0.9928944642E+02
          0                45          52           104    1     1       0.1270239043E+02     104    1   28         0.1173743154E+02      0.9712092847E+02
          0                46          56           104    1     1       0.1179815355E+02     104    1   28         0.1138890901E+02      0.9516369401E+02
          0                47          54           104    1     1       0.1065606413E+02     104    1   28         0.1093157514E+02      0.9330078599E+02
          0                48          57           104    1     1       0.9247221660E+01     104    1   28         0.1034509279E+02      0.9155565935E+02
          0                49          49           106    1     1       0.8548746952E+01     340    1   39         0.1010635386E+02      0.8992315686E+02
          0                50          55           106    1     1       0.8880569607E+01     340    1   39         0.1007358569E+02      0.8832670302E+02
                                                   Max.-Head-Change                         Max.-Flux-Residual
  Residual-Control   Outer-Iter.   Inner-Iter.     Column Row Layer    Maximum-Head-Change  Column Row Layer    Maximum-Flux-Residual          L2-NORM 
          0                51          54           106    1     1       0.9164489151E+01     340    1   39         0.1003168358E+02      0.8703133731E+02
          0                52          58           106    1     1       0.9479741387E+01     340    1   39         0.9977946162E+01      0.8589403123E+02
          0                53          54           106    1     1       0.9790103833E+01     239    1   13         0.1002188788E+02      0.8492536365E+02
          0                54          54           106    1     1       0.1007979287E+02     239    1   13         0.1007056916E+02      0.8411725873E+02
          0                55          58           106    1     1       0.1034968720E+02     239    1   13         0.1011609189E+02      0.8345832892E+02
          0                56          54           106    1     1       0.1060695511E+02     239    1   13         0.1015866132E+02      0.8292021336E+02
          0                57          53           106    1     1       0.1087848580E+02     239    1   13         0.1019848207E+02      0.8246941116E+02
          0                58          54           106    1     1       0.1118962526E+02     239    1   13         0.1023575064E+02      0.8208269858E+02
          0                59          53           106    1     1       0.1157705619E+02     239    1   13         0.1027064054E+02      0.8175602299E+02
          0                60          54           106    1     1       0.1211049305E+02     239    1   13         0.1030333068E+02      0.8147960154E+02
                                                   Max.-Head-Change                         Max.-Flux-Residual
  Residual-Control   Outer-Iter.   Inner-Iter.     Column Row Layer    Maximum-Head-Change  Column Row Layer    Maximum-Flux-Residual          L2-NORM 
          0                61          53           106    1     1       0.1294894356E+02     239    1   13         0.1033398609E+02      0.8125581663E+02
          0                62          54           106    1     1       0.1463263645E+02     239    1   13         0.1036276403E+02      0.8108817920E+02
          0                63          56           106    1     1       0.9982985480E+01     239    1   13         0.1038981003E+02      0.8107319280E+02
          0                64          53           314    1     1       0.7884400528E+01     239    1   13         0.1041525785E+02      0.8053244843E+02
          0                65          55           314    1     1       0.7884732565E+01     239    1   13         0.1043922243E+02      0.7973396151E+02
          0                66          54           314    1     1       0.7887414534E+01     239    1   13         0.1046182579E+02      0.7903454105E+02
          0                67          59           314    1     1       0.7891897726E+01     239    1   13         0.1048317640E+02      0.7848303450E+02
          0                68          53           314    1     1       0.7890274331E+01     239    1   13         0.1050338289E+02      0.7804268232E+02
          0                69          60           316    1     1      -0.7939306708E+01     239    1   13         0.1052254307E+02      0.7765583341E+02
          0                70          54           316    1     1      -0.8088265875E+01     239    1   13         0.1054074627E+02      0.7732737367E+02
                                                   Max.-Head-Change                         Max.-Flux-Residual
  Residual-Control   Outer-Iter.   Inner-Iter.     Column Row Layer    Maximum-Head-Change  Column Row Layer    Maximum-Flux-Residual          L2-NORM 
          0                71          54           316    1     1      -0.8264502373E+01     239    1   13         0.1055807702E+02      0.7703951133E+02
          0                72          54           316    1     1      -0.8475845442E+01     239    1   13         0.1057461421E+02      0.7678061021E+02
          0                73          55           316    1     1      -0.8715455203E+01     239    1   13         0.1059043141E+02      0.7654335456E+02
          0                74          55           316    1     1      -0.8984108005E+01     239    1   13         0.1060559695E+02      0.7632338852E+02
          0                75          55           316    1     1      -0.9324122191E+01     239    1   13         0.1062017443E+02      0.7611786380E+02
          0                76          54           316    1     1      -0.9774009730E+01     239    1   13         0.1063421821E+02      0.7593118630E+02
          0                77          53           316    1     1      -0.1040341199E+02     239    1   13         0.1064778213E+02      0.7576893090E+02
          0                78          55           316    1     1      -0.1136139008E+02     239    1   13         0.1066091494E+02      0.7564525791E+02
          0                79          46           316    1     1      -0.1304493828E+02     239    1   13         0.1067365380E+02      0.7557966235E+02
          0                80          51           316    1     1      -0.1703059518E+02     239    1   13         0.1068604409E+02      0.7560106723E+02
                                                   Max.-Head-Change                         Max.-Flux-Residual
  Residual-Control   Outer-Iter.   Inner-Iter.     Column Row Layer    Maximum-Head-Change  Column Row Layer    Maximum-Flux-Residual          L2-NORM 
          0                81          50           316    1     1      -0.1442459100E+02     316    1   42        -0.1201757620E+02      0.7603485650E+02
          0                82          50           314    1     1       0.8937985667E+01     316    1   42        -0.1267322276E+02      0.7613286936E+02
          0                83          51           314    1     1       0.8001129502E+01     239    1   13         0.1072137233E+02      0.7477663831E+02
          0                84          52           311    1     1       0.7653931758E+01     239    1   13         0.1073260447E+02      0.7391616349E+02
          0                85          54           311    1     1       0.7676928457E+01     239    1   13         0.1074359966E+02      0.7333465974E+02
          0                86          54           311    1     1       0.7710087024E+01     239    1   13         0.1075436473E+02      0.7290343992E+02
[...]
  Residual-Control   Outer-Iter.   Inner-Iter.     Column Row Layer    Maximum-Head-Change  Column Row Layer    Maximum-Flux-Residual          L2-NORM 
          0                21           1           262    1     1      -0.1534775404E-04     244    1   55        -0.2532900851E-04      0.7430888015E-04
          0                22           1           262    1     1      -0.1526899895E-04     244    1   55        -0.2519976749E-04      0.7392095835E-04
          0                23           1           262    1     1      -0.1519041993E-04     244    1   55        -0.2507102101E-04      0.7353485285E-04
          0                24           1           262    1     1      -0.1511215281E-04     244    1   55        -0.2494281193E-04      0.7315063537E-04
          0                25           1           262    1     1      -0.1503413380E-04     244    1   55        -0.2481518311E-04      0.7276835483E-04
          0                26           1           262    1     1      -0.1495647057E-04     244    1   55        -0.2468814830E-04      0.7238804845E-04
          0                27           1           262    1     1      -0.1487893677E-04     244    1   55        -0.2456170751E-04      0.7200973365E-04
          0                28           1           262    1     1      -0.1480206089E-04     244    1   55        -0.2443589199E-04      0.7163346258E-04
          0                29           1           262    1     1      -0.1472536559E-04     244    1   55        -0.2431068697E-04      0.7125922408E-04
          0                30           1           262    1     1      -0.1464890101E-04     244    1   55        -0.2418611803E-04      0.7088706925E-04
                                                   Max.-Head-Change                         Max.-Flux-Residual
  Residual-Control   Outer-Iter.   Inner-Iter.     Column Row Layer    Maximum-Head-Change  Column Row Layer    Maximum-Flux-Residual          L2-NORM 
          0                31           1           262    1     1      -0.1457305346E-04     244    1   55        -0.2406218391E-04      0.7051699566E-04
          0                32           1           262    1     1      -0.1449743351E-04     244    1   55        -0.2393889406E-04      0.7014903389E-04
          0                33           1           262    1     1      -0.1442239970E-04     244    1   55        -0.2381623949E-04      0.6978317470E-04
          0                34           1           262    1     1      -0.1434768928E-04     244    1   55        -0.2369424590E-04      0.6941944144E-04
          0                35           1           262    1     1      -0.1427335303E-04     244    1   55        -0.2357289884E-04      0.6905783176E-04
          0                36           1           262    1     1      -0.1419947910E-04     244    1   55        -0.2345221412E-04      0.6869836638E-04
          0                37           1           262    1     1      -0.1412614917E-04     244    1   55        -0.2333218447E-04      0.6834103014E-04
          0                38           1           262    1     1      -0.1405293967E-04     244    1   55        -0.2321281033E-04      0.6798582255E-04
          0                39           1           262    1     1      -0.1398043223E-04     244    1   55        -0.2309408706E-04      0.6763274488E-04
          0                40           1           262    1     1      -0.1390842876E-04     244    1   55        -0.2297604578E-04      0.6728181267E-04
                                                   Max.-Head-Change                         Max.-Flux-Residual
  Residual-Control   Outer-Iter.   Inner-Iter.     Column Row Layer    Maximum-Head-Change  Column Row Layer    Maximum-Flux-Residual          L2-NORM 
          0                41           1           262    1     1      -0.1383667678E-04     244    1   55        -0.2285866162E-04      0.6693300942E-04
          0                42           1           262    1     1      -0.1376557496E-04     244    1   55        -0.2274192707E-04      0.6658630806E-04
          0                43           1           262    1     1      -0.1369472801E-04     244    1   55        -0.2262585861E-04      0.6624173590E-04
          0                44           1           262    1     1      -0.1362435314E-04     244    1   55        -0.2251045964E-04      0.6589928446E-04
          0                45           1           262    1     1      -0.1355444985E-04     244    1   55        -0.2239570313E-04      0.6555891325E-04
          0                46           1           262    1     1      -0.1348523012E-04     244    1   55        -0.2228161816E-04      0.6522065403E-04
          0                47           1           262    1     1      -0.1341615545E-04     244    1   55        -0.2216817609E-04      0.6488446006E-04
          0                48           1           262    1     1      -0.1334768668E-04     244    1   55        -0.2205539056E-04      0.6455034049E-04
          0                49           1           262    1     1      -0.1327958882E-04     244    1   55        -0.2194326839E-04      0.6421830189E-04
          0                50           1           262    1     1      -0.1321188076E-04     244    1   55        -0.2183179356E-04      0.6388830788E-04
                                                   Max.-Head-Change                         Max.-Flux-Residual
  Residual-Control   Outer-Iter.   Inner-Iter.     Column Row Layer    Maximum-Head-Change  Column Row Layer    Maximum-Flux-Residual          L2-NORM 
          0                51           1           262    1     1      -0.1314484512E-04     244    1   55        -0.2172094787E-04      0.6356032834E-04
          0                52           1           262    1     1      -0.1307801132E-04     244    1   55        -0.2161076179E-04      0.6323440799E-04
          0                53           1           262    1     1      -0.1301166237E-04     244    1   55        -0.2150122464E-04      0.6291050238E-04
          0                54           1           262    1     1      -0.1294588129E-04     244    1   55        -0.2139230571E-04      0.6258857538E-04
          0                55           1           262    1     1      -0.1288050301E-04     244    1   55        -0.2128404196E-04      0.6226866381E-04
          0                56           1           262    1     1      -0.1281544600E-04     244    1   55        -0.2117641407E-04      0.6195073514E-04
          0                57           1           262    1     1      -0.1275092836E-04     244    1   55        -0.2106940747E-04      0.6163475997E-04
          0                58           1           262    1     1      -0.1268676337E-04     244    1   55        -0.2096302285E-04      0.6132072715E-04
          0                59           1           262    1     1      -0.1262311274E-04     244    1   55        -0.2085728374E-04      0.6100866943E-04
          0                60           1           262    1     1      -0.1255982601E-04     244    1   55        -0.2075214297E-04      0.6069849654E-04
                                                   Max.-Head-Change                         Max.-Flux-Residual
  Residual-Control   Outer-Iter.   Inner-Iter.     Column Row Layer    Maximum-Head-Change  Column Row Layer    Maximum-Flux-Residual          L2-NORM 
          0                61           1           262    1     1      -0.1249688532E-04     244    1   55        -0.2064762521E-04      0.6039024804E-04
          0                62           1           262    1     1      -0.1243455039E-04     244    1   55        -0.2054372135E-04      0.6008389945E-04
          0                63           1           262    1     1      -0.1237245007E-04     244    1   55        -0.2044043333E-04      0.5977944168E-04
          0                64           1           262    1     1      -0.1231080558E-04     244    1   55        -0.2033774592E-04      0.5947684622E-04
          0                65           1           262    1     1      -0.1224961804E-04     244    1   55        -0.2023567436E-04      0.5917611778E-04
          0                66           1           262    1     1      -0.1218880404E-04     244    1   55        -0.2013418600E-04      0.5887721912E-04
          0                67           1           262    1     1      -0.1212846162E-04     244    1   55        -0.2003329405E-04      0.5858014758E-04
          0                68           1           262    1     1      -0.1206842084E-04     244    1   55        -0.1993300486E-04      0.5828489983E-04
          0                69           1           262    1     1      -0.1200875485E-04     244    1   55        -0.1983330287E-04      0.5799145369E-04
          0                70           1           262    1     1      -0.1194952393E-04     244    1   55        -0.1973419023E-04      0.5769980421E-04
                                                   Max.-Head-Change                         Max.-Flux-Residual
  Residual-Control   Outer-Iter.   Inner-Iter.     Column Row Layer    Maximum-Head-Change  Column Row Layer    Maximum-Flux-Residual          L2-NORM 
          0                71           1           262    1     1      -0.1189078372E-04     244    1   55        -0.1963564625E-04      0.5740990772E-04
          0                72           1           262    1     1      -0.1183221435E-04     244    1   55        -0.1953768276E-04      0.5712177824E-04
          0                73           1           262    1     1      -0.1177419296E-04     244    1   55        -0.1944030339E-04      0.5683541228E-04
          0                74           1           262    1     1      -0.1171639030E-04     244    1   55        -0.1934348916E-04      0.5655076772E-04
          0                75           1           262    1     1      -0.1165906897E-04     244    1   55        -0.1924722528E-04      0.5626782327E-04
          0                76           1           262    1     1      -0.1160226675E-04     244    1   55        -0.1915153848E-04      0.5598660692E-04
          0                77           1           262    1     1      -0.1154562173E-04     244    1   55        -0.1905641625E-04      0.5570708507E-04
          0                78           1           262    1     1      -0.1148933749E-04     244    1   55        -0.1896183710E-04      0.5542923280E-04
          0                79           1           262    1     1      -0.1143348957E-04     244    1   55        -0.1886780956E-04      0.5515304740E-04
          0                80           1           262    1     1      -0.1137803433E-04     244    1   55        -0.1877433522E-04      0.5487851823E-04
                                                   Max.-Head-Change                         Max.-Flux-Residual
  Residual-Control   Outer-Iter.   Inner-Iter.     Column Row Layer    Maximum-Head-Change  Column Row Layer    Maximum-Flux-Residual          L2-NORM 
          0                81           1           262    1     1      -0.1132280543E-04     244    1   55        -0.1868140464E-04      0.5460563390E-04
          0                82           1           244    1     1      -0.1126936412E-04     244    1   55        -0.1858900885E-04      0.5433436621E-04
          0                83           1           244    1     1      -0.1121785904E-04     244    1   55        -0.1849716455E-04      0.5406473646E-04
          0                84           1           244    1     1      -0.1116664346E-04     244    1   55        -0.1840582911E-04      0.5379667731E-04
          0                85           1           244    1     1      -0.1111576493E-04     244    1   55        -0.1831503130E-04      0.5353021738E-04
          0                86           1           244    1     1      -0.1106510597E-04     244    1   55        -0.1822475724E-04      0.5326533756E-04
          0                87           1           244    1     1      -0.1101476084E-04     244    1   55        -0.1813501842E-04      0.5300203412E-04
          0                88           1           244    1     1      -0.1096467881E-04     244    1   55        -0.1804578619E-04      0.5274026665E-04
          0                89           1           244    1     1      -0.1091485045E-04     244    1   55        -0.1795707590E-04      0.5248005568E-04
          0                90           1           244    1     1      -0.1086533481E-04     244    1   55        -0.1786886116E-04      0.5222134504E-04
                                                   Max.-Head-Change                         Max.-Flux-Residual
  Residual-Control   Outer-Iter.   Inner-Iter.     Column Row Layer    Maximum-Head-Change  Column Row Layer    Maximum-Flux-Residual          L2-NORM 
          0                91           1           244    1     1      -0.1081604779E-04     244    1   55        -0.1778117075E-04      0.5196418236E-04
          0                92           1           244    1     1      -0.1076698232E-04     244    1   55        -0.1769396783E-04      0.5170849455E-04
          0                93           1           244    1     1      -0.1071827698E-04     244    1   55        -0.1760727616E-04      0.5145432142E-04
          0                94           1           244    1     1      -0.1066981416E-04     244    1   55        -0.1752108199E-04      0.5120161926E-04
          0                95           1           244    1     1      -0.1062157568E-04     244    1   55        -0.1743536268E-04      0.5095037414E-04
          0                96           1           244    1     1      -0.1057364073E-04     244    1   55        -0.1735015223E-04      0.5070060607E-04
          0                97           1           244    1     1      -0.1052591764E-04     244    1   55        -0.1726541620E-04      0.5045226860E-04
          0                98           1           244    1     1      -0.1047843494E-04     244    1   55        -0.1718116062E-04      0.5020536543E-04
          0                99           1           244    1     1      -0.1043129608E-04     244    1   55        -0.1709738797E-04      0.4995989139E-04
          0               100           1           244    1     1      -0.1038438263E-04     244    1   55        -0.1701409474E-04      0.4971583024E-04
                                                   Max.-Head-Change                         Max.-Flux-Residual
  Residual-Control   Outer-Iter.   Inner-Iter.     Column Row Layer    Maximum-Head-Change  Column Row Layer    Maximum-Flux-Residual          L2-NORM 
          0               101           1           244    1     1      -0.1033762557E-04     244    1   55        -0.1693128911E-04      0.4947319528E-04
          0               102           1           244    1     1      -0.1029119281E-04     244    1   55        -0.1684892152E-04      0.4923190995E-04
          0               103           1           244    1     1      -0.1024498107E-04     244    1   55        -0.1676702959E-04      0.4899202106E-04
          0               104           1           244    1     1      -0.1019904502E-04     244    1   55        -0.1668560969E-04      0.4875350620E-04
          0               105           1           244    1     1      -0.1015334169E-04     244    1   55        -0.1660463738E-04      0.4851634928E-04
          0               106           1           244    1     1      -0.1010787899E-04     244    1   55        -0.1652413255E-04      0.4828054507E-04
          0               107           1           244    1     1      -0.1006265657E-04     244    1   55        -0.1644406689E-04      0.4804606948E-04
          0               108           1           244    1     1      -0.1001765292E-04     244    1   55        -0.1636445597E-04      0.4781292462E-04
          0               109           1           244    1     1      -0.9972938129E-05     244    1   55        -0.1628529265E-04      0.4758109732E-04

    ------------------------------------------------
       NWT REQUIRED          109 OUTER ITERATIONS 
       AND A TOTAL OF        109 INNER ITERATIONS.
    ------------------------------------------------

 NO OUTPUT CONTROL FOR STRESS PERIOD    3   TIME STEP    1


UNSATURATED ZONE PACKAGE VOLUMETRIC BUDGET FOR  TIME STEP    1 STRESS PERIOD    3
  ------------------------------------------------------------------------------



     CUMULATIVE VOLUMES      L**3       RATES FOR THIS TIME STEP      L**3/T
     ------------------                 ------------------------

           IN:                                      IN:
           ---                                      ---
        INFILTRATION =      864000.0000          INFILTRATION =          43.2000

          OUT:                                     OUT:
          ----                                     ----
              UZF ET =       0.0000E+00                UZF ET =       0.0000E+00
        UZF RECHARGE =      864000.0000          UZF RECHARGE =          43.2000

            IN - OUT =       0.0000E+00              IN - OUT =       0.0000E+00

          STORAGE:                                 STORAGE:
          --------                                 --------
      STORAGE CHANGE =       0.0000E+00        STORAGE CHANGE =       0.0000E+00

 PERCENT DISCREPANCY IS DIFFERENCE BETWEEN IN-OUT MINUS CHANGE IN STORAGE
 DIVIDED BY THE AVERAGE OF IN AND OUT TIMES 100

 PERCENT DISCREPANCY =           0.00     PERCENT DISCREPANCY =           0.00







 SAVING SATURATED THICKNESS AND FLOW TERMS ON UNIT   13 FOR MT3DMS
 BY THE LINK-MT3DMS PACKAGE V7 AT TIME STEP    1, STRESS PERIOD    3

1
  VOLUMETRIC BUDGET FOR ENTIRE MODEL AT END OF TIME STEP    1, STRESS PERIOD   3
  ------------------------------------------------------------------------------

     CUMULATIVE VOLUMES      L**3       RATES FOR THIS TIME STEP      L**3/T
     ------------------                 ------------------------

           IN:                                      IN:
           ---                                      ---
             STORAGE =           1.9216               STORAGE =       9.8312E-05
       CONSTANT HEAD =       62229.0938         CONSTANT HEAD =           3.1116
        UZF RECHARGE =      863999.8125          UZF RECHARGE =          43.2000
               GW ET =           0.0000                 GW ET =           0.0000
     SURFACE LEAKAGE =           0.0000       SURFACE LEAKAGE =           0.0000

            TOTAL IN =      926230.8125              TOTAL IN =          46.3117

          OUT:                                     OUT:
          ----                                     ----
             STORAGE =       1.4082E-04               STORAGE =       1.1571E-08
       CONSTANT HEAD =      926257.7500         CONSTANT HEAD =          46.3126
        UZF RECHARGE =           0.0000          UZF RECHARGE =           0.0000
               GW ET =           0.0000                 GW ET =           0.0000
     SURFACE LEAKAGE =           0.0000       SURFACE LEAKAGE =           0.0000

           TOTAL OUT =      926257.7500             TOTAL OUT =          46.3126

            IN - OUT =         -26.9375              IN - OUT =      -9.1171E-04

 PERCENT DISCREPANCY =           0.00     PERCENT DISCREPANCY =           0.00






         TIME SUMMARY AT END OF TIME STEP    1 IN STRESS PERIOD    3
                    SECONDS     MINUTES      HOURS       DAYS        YEARS
                    -----------------------------------------------------------
   TIME STEP LENGTH 8.00928E+08 1.33488E+07 2.22480E+05  9270.0      25.380    
 STRESS PERIOD TIME 8.00928E+08 1.33488E+07 2.22480E+05  9270.0      25.380    
         TOTAL TIME 1.72800E+09 2.88000E+07 4.80000E+05  20000.      54.757    
1

 Run end date and time (yyyy/mm/dd hh:mm:ss): 2015/05/08  5:40:43
 Elapsed run time: 57.983 Seconds

